geometry optimzed in LAMMPS
_audit_creation_date              2020-12-01 
_audit_creation_method            'lammps2cif' 
_symmetry_space_group_name_H-M    'P1' 
_symmetry_Int_Tables_number       1 
_symmetry_cell_setting            triclinic 
loop_ 
_symmetry_equiv_pos_as_xyz 
  x,y,z 
_cell_length_a                    49.84998555 
_cell_length_b                    49.65464949826348 
_cell_length_c                    49.724012032578905 
_cell_angle_alpha                 90.12707905537758 
_cell_angle_beta                  90.00650470103768 
_cell_angle_gamma                 90.03953070070722 
loop_ 
_atom_site_label 
_atom_site_type_symbol 
_atom_site_fract_x 
_atom_site_fract_y 
_atom_site_fract_z 
_atom_site_charge 
C1          C  0.17363036  0.82608879  0.47476246     0.80100
N2          N  0.15470686  0.84580902  0.47391179    -0.78200
C3          C  0.14444302  0.85591107  0.49725383     0.82600
N4          N  0.15319590  0.84629977  0.52131099    -0.78100
C5          C  0.17208832  0.82664034  0.52200159     0.82700
N6          N  0.18218473  0.81666959  0.49878619    -0.79800
C7          C  0.97367360  0.02495659  0.47785594     0.80100
N8          N  0.96561724  0.03483569  0.50191942    -0.78200
C9          C  0.97615135  0.02542218  0.52513182     0.82600
N10         N  0.99517630  0.00582930  0.52436244    -0.78100
C11         C  0.00362829  0.99586095  0.50026760     0.82700
N12         N  0.99282430  0.00543976  0.47698841    -0.79800
C13         C  0.97425172  0.82772475  0.47595093     0.80100
N14         N  0.99339266  0.84717899  0.47611396    -0.78200
C15         C  0.00488658  0.85483415  0.49974777     0.82600
N16         N  0.99740395  0.84270221  0.52317188    -0.78100
C17         C  0.97808529  0.82327322  0.52302789     0.82700
N18         N  0.96661697  0.81619412  0.49935865    -0.79800
C19         C  0.54995542  0.82483327  0.09345765     0.80100
N20         N  0.55024630  0.84470129  0.07466460    -0.78200
C21         C  0.57391565  0.85623649  0.06721769     0.82600
N22         N  0.59728299  0.84791351  0.07880320    -0.78100
C23         C  0.59694023  0.82806357  0.09767598     0.82700
N24         N  0.57327630  0.81668341  0.10475047    -0.79800
C25         C  0.97711255  0.40317576  0.10693376     0.80100
N26         N  0.96449423  0.42623785  0.11402154    -0.78200
C27         C  0.97048648  0.44988018  0.10188804     0.82600
N28         N  0.98950275  0.45041733  0.08225618    -0.78100
C29         C  0.00247202  0.42731654  0.07517325     0.82700
N30         N  0.99619428  0.40372750  0.08748638    -0.79800
C31         C  0.96904124  0.40661401  0.90603956     0.80100
N32         N  0.98812184  0.40564381  0.92559353    -0.78200
C33         C  0.99927996  0.42881554  0.93513885     0.82600
N34         N  0.99112668  0.45300540  0.92534795    -0.78100
C35         C  0.97202739  0.45396942  0.90594344     0.82700
N36         N  0.96129683  0.43085155  0.89625073    -0.79800
C37         C  0.54850301  0.02752313  0.89889542     0.80100
N38         N  0.54871220  0.00809375  0.91815482    -0.78200
C39         C  0.57247400  0.99826791  0.92747222     0.82600
N40         N  0.59601566  0.00807154  0.91761249    -0.78100
C41         C  0.59572930  0.02739117  0.89829592     0.82700
N42         N  0.57204486  0.03686951  0.88902076    -0.79800
C43         C  0.16506433  0.40447773  0.89891735     0.80100
N44         N  0.14699027  0.40360456  0.91938912    -0.78200
C45         C  0.13921536  0.42684682  0.93175661     0.82600
N46         N  0.14983679  0.45084474  0.92381999    -0.78100
C47         C  0.16792244  0.45164079  0.90335135     0.82700
N48         N  0.17516935  0.42844719  0.89101933    -0.79800
C49         C  0.54570536  0.82835921  0.89898143     0.80100
N50         N  0.56896181  0.81888877  0.88846416    -0.78200
C51         C  0.59294519  0.82885664  0.89672077     0.82600
N52         N  0.59358073  0.84836232  0.91593805    -0.78100
C53         C  0.57033286  0.85778196  0.92675510     0.82700
N54         N  0.54637952  0.84783843  0.91818172    -0.79800
C55         C  0.09713023  0.32894565  0.39819369     0.80100
N56         N  0.09704309  0.34867797  0.41710582    -0.78200
C57         C  0.07339441  0.35813696  0.42687010     0.82600
N58         N  0.04981406  0.34780162  0.41774170    -0.78100
C59         C  0.04981318  0.32813955  0.39869211     0.82700
N60         N  0.07354526  0.31879155  0.38903898    -0.79800
O61         O  0.34328578  0.17492080  0.20250502    -0.88400
C62         C  0.38272365  0.16723109  0.27377443     0.87600
Mg63       Mg  0.32095888  0.21057876  0.19276248     1.58100
O64         O  0.32324307  0.12999565  0.26885036    -0.88200
O65         O  0.33651808  0.13153111  0.20667388    -0.75500
C66         C  0.24708775  0.23681592  0.30082707     0.92700
O67         O  0.37223723  0.22074476  0.23776446    -0.75300
O68         O  0.25922022  0.24880968  0.28183262    -0.82800
Mg69       Mg  0.38359870  0.18095846  0.21694696     1.58000
C70         C  0.26872023  0.12877249  0.33086638     0.92600
O71         O  0.40036231  0.14317494  0.19542055    -0.81100
H72         H  0.30080308  0.10235666  0.25008978    -0.06400
C73         C  0.31731687  0.20158043  0.30830819     0.87500
O74         O  0.28155190  0.19063326  0.20613881    -0.75600
O75         O  0.37350823  0.15872253  0.25226110    -0.88300
O76         O  0.29323635  0.12339730  0.32595589    -0.81200
C77         C  0.37499882  0.09704446  0.30733894     0.92700
C78         C  0.40446608  0.11839093  0.20063993     0.92500
Mg79       Mg  0.26802812  0.17424464  0.28457092     1.58000
O80         O  0.25074887  0.21193239  0.30604197    -0.81100
O81         O  0.27991060  0.13485171  0.26330417    -0.75300
O82         O  0.37978159  0.10210778  0.28269741    -0.81200
O83         O  0.39455753  0.20525947  0.18040859    -0.82900
O84         O  0.27299090  0.25430405  0.21973956    -0.81200
C85         C  0.30143917  0.12143377  0.26059328     0.87000
O86         O  0.27833156  0.19700763  0.24963760    -0.88300
O87         O  0.30818372  0.18019496  0.29937992    -0.88400
O88         O  0.31569418  0.22346512  0.29522929    -0.75500
Mg89       Mg  0.35774076  0.11897939  0.24575420     1.58000
O90         O  0.35534810  0.10774753  0.31970531    -0.82900
H91         H  0.32384349  0.15335400  0.17463500    -0.06600
O92         O  0.32886934  0.22547634  0.23268821    -0.88100
H93         H  0.35150610  0.25348523  0.25063995    -0.06400
H94         H  0.24941989  0.17898910  0.22830924    -0.06600
C95         C  0.35075366  0.23421610  0.24050088     0.87000
C96         C  0.33439442  0.15340672  0.19363231     0.87500
C97         C  0.26879039  0.18879515  0.22817458     0.87600
H98         H  0.32778732  0.20146170  0.32734963    -0.06600
O99         O  0.36989391  0.16513645  0.29577341    -0.75600
Mg100      Mg  0.29466444  0.23653952  0.25631377     1.58000
H101        H  0.40188560  0.17744149  0.27373118    -0.06600
C102        C  0.38271204  0.22495871  0.16927732     0.92600
O103        O  0.29623541  0.24754392  0.18198218    -0.82800
C104        C  0.27727769  0.25884978  0.19492000     0.92600
O105        O  0.39328659  0.10652258  0.22029033    -0.82800
Mg106      Mg  0.33060754  0.14460387  0.30881814     1.58200
O107        O  0.35836563  0.23103551  0.17436946    -0.81100
O108        O  0.25671858  0.14892044  0.32066397    -0.82800
C109        C  0.47479930  0.94812608  0.39969837     0.80100
N110        N  0.49301100  0.94830457  0.42004830    -0.78200
C111        C  0.50426701  0.92481310  0.42846317     0.82600
N112        N  0.49750633  0.90120559  0.41619327    -0.78100
C113        C  0.47918722  0.90094768  0.39590229     0.82700
N114        N  0.46790169  0.92446432  0.38797784    -0.79800
O115        O  0.32607066  0.62794718  0.22833580    -0.88400
C116        C  0.33479822  0.70000629  0.19033000     0.87600
Mg117      Mg  0.29060406  0.61824514  0.25083828     1.58100
O118        O  0.37293997  0.69325546  0.24925349    -0.88200
O119        O  0.36946073  0.63134256  0.23457599    -0.75500
C120        C  0.26948544  0.72580522  0.32808273     0.92700
O121        O  0.28078677  0.66488439  0.20119312    -0.75300
O122        O  0.25630094  0.70701544  0.31663494    -0.82800
Mg123      Mg  0.31977574  0.64358967  0.18848965     1.58000
C124        C  0.37580233  0.75414206  0.30492548     0.92600
O125        O  0.35676531  0.62194395  0.17074954    -0.81100
H126        H  0.40082538  0.67357870  0.27037231    -0.06400
C127        C  0.30235748  0.73321734  0.25751310     0.87500
O128        O  0.31139466  0.62982792  0.29046089    -0.75600
O129        O  0.34287256  0.67823024  0.19919849    -0.88300
O130        O  0.38044251  0.74998209  0.28007903    -0.81200
C131        C  0.40528988  0.73244533  0.19798906     0.92700
C132        C  0.38140073  0.62720396  0.16626146     0.92500
Mg133      Mg  0.33043459  0.70767581  0.30544441     1.58000
O134        O  0.29429131  0.72978101  0.32345654    -0.81100
O135        O  0.36896919  0.68606148  0.29249010    -0.75300
O136        O  0.40026089  0.70782103  0.19285469    -0.81200
O137        O  0.29455744  0.60771425  0.17664127    -0.82900
O138        O  0.24897773  0.64410347  0.30119389    -0.81200
C139        C  0.38190468  0.68420658  0.27057701     0.87000
O140        O  0.30664110  0.67345730  0.29479533    -0.88300
O141        O  0.32369079  0.72357308  0.26575358    -0.88400
O142        O  0.28026366  0.72062302  0.25955176    -0.75500
Mg143      Mg  0.38261317  0.67076888  0.21414399     1.58000
O144        O  0.39479824  0.74478171  0.21779240    -0.82900
H145        H  0.34732807  0.59930018  0.24681278    -0.06600
O146        O  0.27650051  0.65863135  0.24458296    -0.88100
H147        H  0.24882539  0.67796606  0.22286184    -0.06400
H148        H  0.32436195  0.65094950  0.32294803    -0.06600
C149        C  0.26774153  0.66733098  0.22301887     0.87000
C150        C  0.34746571  0.61855831  0.23671088     0.87500
C151        C  0.31427056  0.65153924  0.30371218     0.87600
H152        H  0.30266330  0.75251316  0.24748832    -0.06600
O153        O  0.33739581  0.72176779  0.20355136    -0.75600
Mg154      Mg  0.26689834  0.68144665  0.28001264     1.58000
H155        H  0.32451625  0.70040342  0.17118974    -0.06600
C156        C  0.27482919  0.59674351  0.18855996     0.92600
O157        O  0.25367281  0.60765406  0.27543856    -0.82800
C158        C  0.24326242  0.61967916  0.29552472     0.92600
O159        O  0.39364516  0.64639828  0.17784426    -0.82800
Mg160      Mg  0.35860239  0.73353797  0.24289758     1.58200
O161        O  0.26936233  0.60149449  0.21317030    -0.81100
O162        O  0.35637382  0.74309416  0.31726048    -0.82800
O163        O  0.84166220  0.17845476  0.29873420    -0.88400
C164        C  0.87904772  0.18600053  0.22662305     0.87600
Mg165      Mg  0.81916976  0.14320317  0.30857917     1.58100
O166        O  0.82035244  0.22445853  0.23307878    -0.88200
O167        O  0.83496223  0.22186224  0.29497328    -0.75500
C168        C  0.74249710  0.11970875  0.20101612     0.92700
O169        O  0.86894906  0.13237770  0.26266561    -0.75300
O170        O  0.75407795  0.10713363  0.22006819    -0.82800
Mg171      Mg  0.88140699  0.17193758  0.28348543     1.58000
C172        C  0.76459073  0.22793775  0.17210180     0.92600
O173        O  0.89868564  0.20955966  0.30488262    -0.81100
H174        H  0.79928881  0.25267664  0.25251655    -0.06400
C175        C  0.81230073  0.15369883  0.19332693     0.87500
O176        O  0.77983369  0.16401423  0.29645431    -0.75600
O177        O  0.87060267  0.19449260  0.24845111    -0.88300
O178        O  0.78948069  0.23234443  0.17616708    -0.81200
C179        C  0.87202735  0.25667515  0.19420191     0.92700
C180        C  0.90284765  0.23427433  0.29933847     0.92500
Mg181      Mg  0.76417787  0.18185949  0.21855497     1.58000
O182        O  0.74645013  0.14474432  0.19678207    -0.81100
O183        O  0.77713180  0.22073970  0.23998316    -0.75300
O184        O  0.87699233  0.25141623  0.21871184    -0.81200
O185        O  0.89293303  0.14724941  0.31989458    -0.82900
O186        O  0.76930304  0.10025769  0.28306912    -0.81200
C187        C  0.79906285  0.23361419  0.24196954     0.87000
O188        O  0.77500452  0.15825173  0.25299529    -0.88300
O189        O  0.80374807  0.17521205  0.20252436    -0.88400
O190        O  0.81061128  0.13176157  0.20633927    -0.75500
Mg191      Mg  0.85542128  0.23439904  0.25553390     1.58000
O192        O  0.85210050  0.24658151  0.18177352    -0.82900
H193        H  0.82313301  0.19992804  0.32726115    -0.06600
O194        O  0.82555137  0.12848967  0.26840632    -0.88100
H195        H  0.84727940  0.10020262  0.24979330    -0.06400
H196        H  0.74731576  0.17672645  0.27549311    -0.06600
C197        C  0.84711085  0.11939287  0.26010643     0.87000
C198        C  0.83315438  0.19994690  0.30798002     0.87500
C199        C  0.76641555  0.16644454  0.27486552     0.87600
H200        H  0.82234844  0.15373408  0.17405968    -0.06600
O201        O  0.86576111  0.18871747  0.20496472    -0.75600
Mg202      Mg  0.79030704  0.11836988  0.24558219     1.58000
H203        H  0.89792691  0.17531017  0.22607124    -0.06600
C204        C  0.88098003  0.12748441  0.33086569     0.92600
O205        O  0.79442968  0.10687566  0.31962390    -0.82800
C206        C  0.77470795  0.09576527  0.30776356     0.92600
O207        O  0.89142466  0.24601678  0.27983049    -0.82800
Mg208      Mg  0.82670593  0.21025045  0.19278292     1.58200
O209        O  0.85654841  0.12171343  0.32584082    -0.81100
O210        O  0.75229324  0.20831698  0.18308575    -0.82800
C211        C  0.67387896  0.95370894  0.40809483     0.80100
N212        N  0.65459874  0.95296301  0.42744509    -0.78200
C213        C  0.64376322  0.92888965  0.43490734     0.82600
N214        N  0.65212878  0.90572424  0.42280158    -0.78100
C215        C  0.67128394  0.90664391  0.40338224     0.82700
N216        N  0.68197335  0.93058291  0.39619896    -0.79800
O217        O  0.81550615  0.69412233  0.30196278    -0.88400
C218        C  0.81091487  0.73138483  0.22918006     0.87600
Mg219      Mg  0.84937148  0.67027066  0.31384946     1.58100
O220        O  0.77060463  0.67346527  0.23539939    -0.88200
O221        O  0.77202963  0.68985286  0.29711560    -0.75500
C222        C  0.87432898  0.59101091  0.20893159     0.92700
O223        O  0.86327572  0.71836973  0.26652242    -0.75300
O224        O  0.88642430  0.60152540  0.22891345    -0.82800
Mg225      Mg  0.82423321  0.73341026  0.28607165     1.58000
C226        C  0.76961584  0.61686840  0.17445021     0.92600
O227        O  0.78725774  0.75336503  0.30582914    -0.81100
H228        H  0.74159966  0.65300622  0.25418742    -0.06400
C229        C  0.84314300  0.66200161  0.19913108     0.87500
O230        O  0.82739500  0.63126076  0.30212657    -0.75600
O231        O  0.80176953  0.72315875  0.25075067    -0.88300
O232        O  0.76537767  0.64182402  0.17853661    -0.81200
C233        C  0.74078718  0.72446368  0.19376214     0.92700
C234        C  0.76301593  0.75898019  0.29978144     0.92500
Mg235      Mg  0.81262945  0.61535311  0.22347737     1.58000
O236        O  0.84992218  0.59639966  0.20338841    -0.81100
O237        O  0.77337761  0.63003423  0.24299989    -0.75300
O238        O  0.74501900  0.73040021  0.21837963    -0.81200
O239        O  0.84909429  0.74483265  0.32271265    -0.82900
O240        O  0.89256297  0.61872275  0.29132580    -0.81200
C241        C  0.76090140  0.65233511  0.24429683     0.87000
O242        O  0.83499932  0.62524091  0.25909786    -0.88300
O243        O  0.82105903  0.65490667  0.20791769    -0.88400
O244        O  0.86453546  0.65890564  0.21265426    -0.75500
Mg245      Mg  0.76116786  0.70978072  0.25683809     1.58000
O246        O  0.75185462  0.70433682  0.18242879    -0.82900
H247        H  0.79235746  0.67735170  0.33017532    -0.06600
O248        O  0.86573708  0.67497319  0.27417396    -0.88100
H249        H  0.89485288  0.69516041  0.25528681    -0.06400
H250        H  0.81453200  0.59860479  0.28115563    -0.06600
C251        C  0.87558191  0.69599557  0.26522504     0.87000
C252        C  0.79341000  0.68698758  0.31072745     0.87500
C253        C  0.82550902  0.61738404  0.28069551     0.87600
H254        H  0.84419553  0.67171083  0.17972024    -0.06600
O255        O  0.80880839  0.71775782  0.20764667    -0.75600
Mg256      Mg  0.87560290  0.63891432  0.25285310     1.58000
H257        H  0.82169907  0.75027833  0.22880249    -0.06600
C258        C  0.86842312  0.73226251  0.33374174     0.92600
O259        O  0.88433999  0.64445793  0.32725435    -0.82800
C260        C  0.89635739  0.62489677  0.31597200     0.92600
O261        O  0.75088882  0.74755893  0.28032851    -0.82800
Mg262      Mg  0.78717260  0.67865439  0.19575367     1.58200
O263        O  0.87229817  0.70724066  0.32964043    -0.81100
O264        O  0.78813270  0.60404042  0.18651537    -0.82800
C265        C  0.04991636  0.52894688  0.40397789     0.80100
N266        N  0.05053554  0.50937041  0.42297752    -0.78200
C267        C  0.07436380  0.49863997  0.43086793     0.82600
N268        N  0.09766523  0.50745763  0.41951589    -0.78100
C269        C  0.09706788  0.52713046  0.40046494     0.82700
N270        N  0.07314139  0.53771467  0.39284368    -0.79800
C271        C  0.47655978  0.32723110  0.97440325     0.80100
N272        N  0.49543345  0.34693618  0.97508102    -0.78200
C273        C  0.50477062  0.35607877  0.99915928     0.82600
N274        N  0.49483926  0.34572195  0.02250738    -0.78100
C275        C  0.47585448  0.32600981  0.02169138     0.82700
N276        N  0.46711315  0.31679710  0.99761373    -0.79800
O277        O  0.36859700  0.15946138  0.74808962    -0.88400
C278        C  0.29705195  0.12060838  0.74084923     0.87600
Mg279      Mg  0.37891284  0.18299449  0.78281407     1.58100
O280        O  0.30309111  0.17899795  0.70157740    -0.88200
O281        O  0.36493777  0.16440621  0.70448371    -0.75500
C282        C  0.27251475  0.26124047  0.80492494     0.92700
O283        O  0.33210633  0.13374933  0.79418395    -0.75300
O284        O  0.29187974  0.25039264  0.81759836    -0.82800
Mg285      Mg  0.35320854  0.11978163  0.75538452     1.58000
C286        C  0.24153959  0.23412305  0.69917146     0.92600
O287        O  0.37496692  0.10113027  0.71877265    -0.81100
H288        H  0.32204907  0.20002742  0.67308660    -0.06400
C289        C  0.26415976  0.18945451  0.77335664     0.87500
O290        O  0.36689692  0.22194261  0.76093341    -0.75600
O291        O  0.31856017  0.12935635  0.73211471    -0.88300
O292        O  0.24592786  0.20921652  0.69505691    -0.81200
C293        C  0.26370960  0.12780990  0.66963870     0.92700
C294        C  0.36978021  0.09570034  0.69424423     0.92500
Mg295      Mg  0.28881386  0.23661693  0.74364765     1.58000
O296        O  0.26748819  0.25570651  0.78036201    -0.81100
O297        O  0.30961325  0.22255044  0.70481265    -0.75300
O298        O  0.28828651  0.12220673  0.67410235    -0.81200
O299        O  0.38896110  0.10889578  0.78059458    -0.82900
O300        O  0.35382546  0.23434353  0.82429422    -0.81200
C301        C  0.31169974  0.20036908  0.69219043     0.87000
O302        O  0.32362796  0.22698586  0.76693603    -0.88300
O303        O  0.27364697  0.19675894  0.75159725    -0.88400
O304        O  0.27691812  0.19247988  0.79526722    -0.75500
Mg305      Mg  0.32563678  0.14353162  0.69194366     1.58000
O306        O  0.25175200  0.14714356  0.68137997    -0.82900
H307        H  0.39696713  0.17745517  0.72609846    -0.06600
O308        O  0.33879916  0.17726565  0.79791579    -0.88100
H309        H  0.31924400  0.15608281  0.82589032    -0.06400
H310        H  0.34587601  0.25419802  0.74746167    -0.06600
C311        C  0.32989016  0.15585593  0.80694958     0.87000
C312        C  0.37779984  0.16725752  0.72636867     0.87500
C313        C  0.34534975  0.23534862  0.75829084     0.87600
H314        H  0.24483937  0.17955485  0.77365120    -0.06600
O315        O  0.27540636  0.13389321  0.73878266    -0.75600
Mg316      Mg  0.31644412  0.21311637  0.80727145     1.58000
H317        H  0.29685083  0.10159001  0.75139177    -0.06600
C318        C  0.40035453  0.12100277  0.79999981     0.92600
O319        O  0.39041318  0.20912814  0.81837915    -0.82800
C320        C  0.37838789  0.22906265  0.82904487     0.92600
O321        O  0.35045874  0.10665689  0.68162053    -0.82800
Mg322      Mg  0.26325368  0.17279242  0.71718580     1.58200
O323        O  0.39599181  0.14577347  0.80536483    -0.81100
O324        O  0.25274764  0.24726723  0.71805938    -0.82800
C325        C  0.47078296  0.94781780  0.60053076     0.80100
N326        N  0.46059071  0.92394416  0.60860609    -0.78200
C327        C  0.46873351  0.90057811  0.59722725     0.82600
N328        N  0.48767447  0.90106969  0.57755886    -0.78100
C329        C  0.49817859  0.92499649  0.56930463     0.82700
N330        N  0.48969352  0.94842952  0.58081542    -0.79800
O331        O  0.29921344  0.62979090  0.75064331    -0.88400
C332        C  0.26154958  0.70091462  0.73729500     0.87600
Mg333      Mg  0.32000335  0.62103125  0.78707849     1.58100
O334        O  0.32227173  0.69333535  0.70238616    -0.88200
O335        O  0.30796262  0.63132266  0.70747069    -0.75500
C336        C  0.39536949  0.72933310  0.80928185     0.92700
O337        O  0.27025008  0.66873690  0.79324900    -0.75300
O338        O  0.38395986  0.71049572  0.82232502    -0.82800
Mg339      Mg  0.25934893  0.64568897  0.75465653     1.58000
C340        C  0.37762886  0.75493070  0.70148324     0.92600
O341        O  0.24385990  0.62216892  0.71812639    -0.81100
H342        H  0.34512508  0.67307395  0.67624473    -0.06400
C343        C  0.32680684  0.73551032  0.77281944     0.87500
O344        O  0.36022915  0.63219535  0.76754660    -0.75600
O345        O  0.27095694  0.67895775  0.73033669    -0.88300
O346        O  0.35313355  0.75059229  0.69548298    -0.81200
C347        C  0.27265482  0.73106660  0.66666368     0.92700
C348        C  0.24088416  0.62500750  0.69285621     0.92500
Mg349      Mg  0.37582458  0.70947729  0.74780770     1.58000
O350        O  0.39125207  0.73298911  0.78429719    -0.81100
O351        O  0.36519186  0.68669813  0.70906094    -0.75300
O352        O  0.26779387  0.70626560  0.67122106    -0.81200
O353        O  0.24619818  0.61131623  0.78103232    -0.82900
O354        O  0.36817367  0.64808298  0.83030872    -0.81200
C355        C  0.34412570  0.68424679  0.69490421     0.87000
O356        O  0.36427102  0.67589079  0.77183153    -0.88300
O357        O  0.33593395  0.72514656  0.75211003    -0.88400
O358        O  0.32802404  0.72371866  0.79544576    -0.75500
Mg359      Mg  0.28802127  0.66980352  0.69157383     1.58000
O360        O  0.29139812  0.74389924  0.67839529    -0.82900
H361        H  0.31884365  0.60029463  0.73159079    -0.06600
O362        O  0.31309795  0.66180715  0.80027358    -0.88100
H363        H  0.29027972  0.68267304  0.82596886    -0.06400
H364        H  0.39310735  0.65309769  0.75560510    -0.06600
C365        C  0.29128195  0.67122334  0.80747764     0.87000
C366        C  0.30873967  0.61949137  0.73008500     0.87500
C367        C  0.37352270  0.65385107  0.76491346     0.87600
H368        H  0.31679208  0.75476675  0.77148552    -0.06600
O369        O  0.27482937  0.72261387  0.73511367    -0.75600
Mg370      Mg  0.34787535  0.68490531  0.81080309     1.58000
H371        H  0.24187235  0.70151545  0.74641592    -0.06600
C372        C  0.25725679  0.60032111  0.80123629     0.92600
O373        O  0.34327270  0.61105791  0.82461571    -0.82800
C374        C  0.36279234  0.62351206  0.83540860     0.92600
O375        O  0.25270779  0.64347733  0.67967018    -0.82800
Mg376      Mg  0.31496800  0.73399401  0.71576789     1.58200
O377        O  0.28174633  0.60458087  0.80732345    -0.81100
O378        O  0.38880020  0.74414603  0.72173478    -0.82800
C379        C  0.05003560  0.52146126  0.60292393     0.80100
N380        N  0.07425048  0.52972348  0.61218808    -0.78200
C381        C  0.09720771  0.51994050  0.60137440     0.82600
N382        N  0.09605831  0.50191758  0.58086965    -0.78100
C383        C  0.07187168  0.49355371  0.57136387     0.82700
N384        N  0.04883276  0.50333154  0.58239534    -0.79800
C385        C  0.09693850  0.32400422  0.59371281     0.80100
N386        N  0.09637597  0.34422752  0.57537116    -0.78200
C387        C  0.07242178  0.35401998  0.56661295     0.82600
N388        N  0.04909020  0.34369559  0.57641096    -0.78100
C389        C  0.04978455  0.32349269  0.59477271     0.82700
N390        N  0.07366696  0.31373384  0.60325283    -0.79800
O391        O  0.77567770  0.18007993  0.76687597    -0.88400
C392        C  0.84630124  0.18693096  0.80802913     0.87600
Mg393      Mg  0.76514116  0.14506707  0.74365637     1.58100
O394        O  0.84316417  0.22490416  0.74863220    -0.88200
O395        O  0.78063253  0.22355308  0.76123592    -0.75500
C396        C  0.87356805  0.11760606  0.67134354     0.92700
O397        O  0.81025292  0.13363562  0.79515198    -0.75300
O398        O  0.85360462  0.10591289  0.68209079    -0.82800
Mg399      Mg  0.78978913  0.17324503  0.80728053     1.58000
C400        C  0.90657246  0.22366130  0.69497693     0.92600
O401        O  0.76839590  0.21063572  0.82466972    -0.81100
H402        H  0.82533211  0.25281612  0.72590846    -0.06400
C403        C  0.88029828  0.15173783  0.74222041     0.87500
O404        O  0.77927787  0.16534600  0.70467038    -0.75600
O405        O  0.82526240  0.19562391  0.79817851    -0.88300
O406        O  0.90181346  0.22918688  0.71959441    -0.81200
C407        C  0.88133971  0.25699001  0.80093991     0.92700
C408        C  0.77389647  0.23515670  0.82994328     0.92500
Mg409      Mg  0.85821602  0.18010678  0.69307873     1.58000
O410        O  0.87937161  0.14219431  0.67605976    -0.81100
O411        O  0.83785455  0.21993869  0.70511003    -0.75300
O412        O  0.85641968  0.25303311  0.80525218    -0.81200
O413        O  0.75330191  0.14873432  0.81775907    -0.82900
O414        O  0.79142551  0.10042487  0.69537800    -0.81200
C415        C  0.83534291  0.23352504  0.72666498     0.87000
O416        O  0.82250852  0.15798329  0.70210285    -0.88300
O417        O  0.87205107  0.17352610  0.73354027    -0.88400
O418        O  0.86689665  0.13013131  0.73946981    -0.75500
Mg419      Mg  0.81947616  0.23571613  0.78313564     1.58000
O420        O  0.89393188  0.24501901  0.78209973    -0.82900
H421        H  0.74854649  0.20243571  0.74749400    -0.06600
O422        O  0.80446498  0.12893410  0.75170597    -0.88100
H423        H  0.82238230  0.10080779  0.77407903    -0.06400
H424        H  0.80225302  0.17690069  0.67304340    -0.06600
C425        C  0.81242368  0.12013442  0.77353673     0.87000
C426        C  0.76732811  0.20189790  0.75835403     0.87500
C427        C  0.80150922  0.16683056  0.69228516     0.87600
H428        H  0.89906138  0.15119074  0.75311124    -0.06600
O429        O  0.86851340  0.18849545  0.79563274    -0.75600
Mg430      Mg  0.82806719  0.11796850  0.71756185     1.58000
H431        H  0.84561676  0.17693894  0.82731300    -0.06600
C432        C  0.74168333  0.12966031  0.80530638     0.92600
O433        O  0.75364451  0.10878458  0.71799624    -0.82800
C434        C  0.76649180  0.09657501  0.69950255     0.92600
O435        O  0.79368862  0.24731475  0.81923620    -0.82800
Mg436      Mg  0.88254808  0.20868220  0.75658573     1.58200
O437        O  0.74613922  0.12440503  0.78059293    -0.81100
O438        O  0.89502711  0.20436986  0.68273632    -0.82800
C439        C  0.66766999  0.94766794  0.60484235     0.80100
N440        N  0.64904638  0.94841596  0.58486482    -0.78200
C441        C  0.63801168  0.92508290  0.57552284     0.82600
N442        N  0.64566703  0.90107349  0.58630466    -0.78100
C443        C  0.66429105  0.90039991  0.60630166     0.82700
N444        N  0.67522176  0.92371182  0.61531922    -0.79800
O445        O  0.80455665  0.72434582  0.75417960    -0.88400
C446        C  0.76702875  0.65218018  0.76150518     0.87600
Mg447      Mg  0.82688146  0.73533187  0.71887832     1.58100
O448        O  0.82613893  0.65890473  0.79928909    -0.88200
O449        O  0.81040686  0.72083963  0.79767577    -0.75500
C450        C  0.90539310  0.62985422  0.69347427     0.92700
O451        O  0.77805604  0.68774336  0.70855616    -0.75300
O452        O  0.89387750  0.64923904  0.68137407    -0.82800
Mg453      Mg  0.76495400  0.70853172  0.74786161     1.58000
C454        C  0.88193783  0.59819606  0.80039134     0.92600
O455        O  0.74724282  0.72983294  0.78519433    -0.81100
H456        H  0.84758204  0.67832046  0.82723509    -0.06400
C457        C  0.83533293  0.62031728  0.72695467     0.87500
O458        O  0.86651195  0.72376272  0.73951967    -0.75600
O459        O  0.77552153  0.67377778  0.77053328    -0.88300
O460        O  0.85704457  0.60200476  0.80445962    -0.81200
C461        C  0.77685452  0.61786747  0.83136638     0.92700
C462        C  0.74251344  0.72464916  0.80984715     0.92500
Mg463      Mg  0.88273006  0.64560063  0.75570399     1.58000
O464        O  0.90090576  0.62447947  0.71817843    -0.81100
O465        O  0.86931667  0.66622753  0.79490154    -0.75300
O466        O  0.77126428  0.64273826  0.82824583    -0.81200
O467        O  0.75277753  0.74436790  0.72314899    -0.82900
O468        O  0.87676090  0.71127921  0.67554428    -0.81200
C469        C  0.84755217  0.66791928  0.80811030     0.87000
O470        O  0.87198122  0.68044956  0.73282431    -0.88300
O471        O  0.84308014  0.62997376  0.74852364    -0.88400
O472        O  0.83731870  0.63324323  0.70505068    -0.75500
Mg473      Mg  0.79078886  0.68087763  0.81036402     1.58000
O474        O  0.79565958  0.60627062  0.81864104    -0.82900
H475        H  0.82232465  0.75323154  0.77588832    -0.06600
O476        O  0.82119943  0.69509020  0.70361986    -0.88100
H477        H  0.79949821  0.67525920  0.67615597    -0.06400
H478        H  0.89939958  0.70302582  0.75168384    -0.06600
C479        C  0.79971290  0.68587999  0.69515810     0.87000
C480        C  0.81257980  0.73377363  0.77576402     0.87500
C481        C  0.88027410  0.70231141  0.74145140     0.87600
H482        H  0.82587240  0.60071783  0.72686705    -0.06600
O483        O  0.78082339  0.63073244  0.76254110    -0.75600
Mg484      Mg  0.85682268  0.67329906  0.69290841     1.58000
H485        H  0.74780179  0.65179898  0.75144850    -0.06600
C486        C  0.76413415  0.75538774  0.70312970     0.92600
O487        O  0.85196179  0.74793600  0.68256420    -0.82800
C488        C  0.87161093  0.73604797  0.67125554     0.92600
O489        O  0.75378019  0.70521917  0.82214636    -0.82800
Mg490      Mg  0.82021788  0.61892337  0.78308372     1.58200
O491        O  0.78880320  0.75130457  0.69756511    -0.81100
O492        O  0.89462569  0.60967215  0.78137867    -0.82800
C493        C  0.47357248  0.52598916  0.97061646     0.80100
N494        N  0.49275548  0.50654830  0.97099059    -0.78200
C495        C  0.50131407  0.49652904  0.99499718     0.82600
N496        N  0.49042644  0.50575532  0.01835990    -0.78100
C497        C  0.47120627  0.52512588  0.01779884     0.82700
N498        N  0.46310098  0.53518820  0.99393222    -0.79800
C499        C  0.67171475  0.32782940  0.97790277     0.80100
N500        N  0.65246777  0.34725982  0.97750941    -0.78200
C501        C  0.64481291  0.35948572  0.00085234     0.82600
N502        N  0.65660694  0.35234571  0.02449400    -0.78100
C503        C  0.67576342  0.33284407  0.02494821     0.82700
N504        N  0.68300870  0.32070222  0.00161729    -0.79800
C505        C  0.67265309  0.52611953  0.97553629     0.80100
N506        N  0.65311658  0.50709782  0.97560437    -0.78200
C507        C  0.64097396  0.50028178  0.99910285     0.82600
N508        N  0.64827035  0.51273944  0.02239887    -0.78100
C509        C  0.66794509  0.53174067  0.02229766     0.82700
N510        N  0.68009187  0.53814032  0.99880842    -0.79800
C511        C  0.54867395  0.02424470  0.09759023     0.80100
N512        N  0.57170451  0.03574654  0.10648900    -0.78200
C513        C  0.59582891  0.02854294  0.09605270     0.82600
N514        N  0.59671280  0.00928083  0.07655448    -0.78100
C515        C  0.57372044  0.99726273  0.06786475     0.82700
N516        N  0.54967197  0.00489312  0.07830283    -0.79800
C517        C  0.17035081  0.40290073  0.10333361     0.80100
N518        N  0.15060425  0.40154720  0.08444983    -0.78200
C519        C  0.14229815  0.42442085  0.07183345     0.82600
N520        N  0.15364485  0.44851078  0.07819368    -0.78100
C521        C  0.17334105  0.44971412  0.09696975     0.82700
N522        N  0.18160256  0.42696465  0.10931048    -0.79800
C523        C  0.17316718  0.02357925  0.47205464     0.80100
N524        N  0.18298887  0.03415808  0.49517506    -0.78200
C525        C  0.17345438  0.02608321  0.51938202     0.82600
N526        N  0.15371532  0.00714275  0.52038243    -0.78100
C527        C  0.14369416  0.99647789  0.49717259     0.82700
N528        N  0.15345772  0.00474143  0.47301290    -0.79800
N529        N  0.11561933  0.92615096  0.49597561    -0.36700
N530        N  0.07453245  0.88403427  0.49854154    -0.57200
N531        N  0.03262414  0.92556805  0.49854612    -0.36700
N532        N  0.07377758  0.96773343  0.49915533    -0.57200
C533        C  0.13138916  0.90420476  0.49945618     0.26900
C534        C  0.13101101  0.94826300  0.50017459     0.26900
C535        C  0.01721493  0.90335530  0.50210842     0.26900
C536        C  0.01677864  0.94749921  0.50190816     0.26900
C537        C  0.09632676  0.86820217  0.49499586     0.35500
C538        C  0.05278716  0.86782782  0.49669596     0.35500
C539        C  0.09545566  0.98388619  0.49626151     0.35500
C540        C  0.05182915  0.98360993  0.49693126     0.35500
C541        C  0.15729628  0.91251852  0.50542749    -0.22000
C542        C  0.15706160  0.94024052  0.50587383    -0.22000
C543        C  0.99106856  0.91130745  0.50746050    -0.22000
C544        C  0.99078890  0.93906032  0.50729791    -0.22000
C545        C  0.08838214  0.84169019  0.49122066    -0.23000
C546        C  0.06086468  0.84145353  0.49229607    -0.23000
C547        C  0.08723217  0.01029584  0.49256361    -0.23000
C548        C  0.05966864  0.01012607  0.49301151    -0.23000
C549        C  0.12335154  0.87690738  0.49663521    -0.18400
C550        C  0.12258761  0.97548463  0.49801430    -0.18400
C551        C  0.02481691  0.97487730  0.49943045    -0.18400
C552        C  0.02574499  0.87611955  0.49973830    -0.18400
H553        H  0.17464971  0.89994332  0.50903554     0.14500
H554        H  0.17420921  0.95301814  0.50988735     0.14500
H555        H  0.97387249  0.89845930  0.51095192     0.14500
H556        H  0.97332656  0.95156908  0.51059182     0.14500
H557        H  0.10108083  0.82425925  0.48824507     0.12800
H558        H  0.04826516  0.82380895  0.49021284     0.12800
H559        H  0.09977147  0.02791298  0.49001749     0.12800
H560        H  0.04688291  0.02759755  0.49087294     0.12800
H561        H  0.09596592  0.92607724  0.48993845     0.26100
H562        H  0.05239486  0.92573233  0.49314998     0.26100
N563        N  0.57333313  0.96906326  0.99754384    -0.36700
N564        N  0.57503509  0.92690922  0.03923038    -0.57200
N565        N  0.57129354  0.88565746  0.99728117    -0.36700
N566        N  0.57240364  0.92781191  0.95553869    -0.57200
C567        C  0.57627458  0.98472052  0.01965377     0.26900
C568        C  0.57533774  0.98509695  0.97561833     0.26900
C569        C  0.57527872  0.86970501  0.01901694     0.26900
C570        C  0.57392111  0.87017244  0.97498675     0.26900
C571        C  0.57343696  0.94881852  0.05539361     0.35500
C572        C  0.57315355  0.90496442  0.05525590     0.35500
C573        C  0.57047329  0.94979301  0.93960593     0.35500
C574        C  0.56956008  0.90601248  0.93944989     0.35500
C575        C  0.57997495  0.01124089  0.01164977    -0.22000
C576        C  0.57943032  0.01146364  0.98396876    -0.22000
C577        C  0.58001690  0.84355238  0.01038147    -0.22000
C578        C  0.57912199  0.84383607  0.98270765    -0.22000
C579        C  0.57100653  0.94067496  0.08196644    -0.23000
C580        C  0.57081797  0.91299067  0.08187057    -0.23000
C581        C  0.56676515  0.94186073  0.91310490    -0.23000
C582        C  0.56614845  0.91420479  0.91300717    -0.23000
C583        C  0.57470890  0.97610288  0.04685751    -0.18400
C584        C  0.57271837  0.97693590  0.94832463    -0.18400
C585        C  0.57107846  0.87878272  0.94787931    -0.18400
C586        C  0.57412100  0.87775778  0.04644913    -0.18400
H587        H  0.58259521  0.02874252  0.02439761     0.14500
H588        H  0.58153398  0.02914679  0.97145753     0.14500
H589        H  0.58371583  0.82601214  0.02272220     0.14500
H590        H  0.58189903  0.82651386  0.96976939     0.14500
H591        H  0.56958012  0.95334299  0.09965063     0.12800
H592        H  0.56917257  0.90024460  0.09942719     0.12800
H593        H  0.56483677  0.95464003  0.89560564     0.12800
H594        H  0.56369067  0.90158415  0.89539998     0.12800
H595        H  0.56920578  0.94877761  0.99754794     0.26100
H596        H  0.56601670  0.90571189  0.99759319     0.26100
N597        N  0.06984734  0.42549144  0.96192703    -0.36700
N598        N  0.11236211  0.42497628  0.00253540    -0.57200
N599        N  0.07160281  0.42390062  0.04511729    -0.36700
N600        N  0.02918782  0.42797709  0.00449224    -0.57200
C601        C  0.09150637  0.42931421  0.94592844     0.26900
C602        C  0.04763218  0.43007838  0.94695520     0.26900
C603        C  0.09400646  0.42668264  0.06024962     0.26900
C604        C  0.05021262  0.42862534  0.06122757     0.26900
C605        C  0.12784628  0.42287025  0.98027714     0.35500
C606        C  0.12871705  0.42153763  0.02396347     0.35500
C607        C  0.01269628  0.42556872  0.98302188     0.35500
C608        C  0.01365099  0.42568482  0.02666207     0.35500
C609        C  0.08287922  0.43598708  0.92025701    -0.22000
C610        C  0.05528421  0.43643106  0.92089104    -0.22000
C611        C  0.08670253  0.43274986  0.08651723    -0.22000
C612        C  0.05913221  0.43397748  0.08712572    -0.22000
C613        C  0.15429837  0.41840945  0.98763619    -0.23000
C614        C  0.15484984  0.41754193  0.01525108    -0.23000
C615        C  0.98644828  0.42216674  0.99162513    -0.23000
C616        C  0.98705446  0.42223057  0.01922670    -0.23000
C617        C  0.11880712  0.42610195  0.95343936    -0.18400
C618        C  0.02063760  0.42776077  0.95576880    -0.18400
C619        C  0.02283556  0.42744606  0.05355665    -0.18400
C620        C  0.12084521  0.42341299  0.05131068    -0.18400
H621        H  0.09516265  0.43997202  0.90276409     0.14500
H622        H  0.04236489  0.44082563  0.90397180     0.14500
H623        H  0.09985222  0.43597535  0.10354627     0.14500
H624        H  0.04703965  0.43834495  0.10468183     0.14500
H625        H  0.17147618  0.41625523  0.97450128     0.12800
H626        H  0.17254366  0.41458673  0.02751442     0.12800
H627        H  0.96865587  0.42004701  0.97931843     0.12800
H628        H  0.96983840  0.42005703  0.03231185     0.12800
H629        H  0.07012844  0.41896410  0.98161164     0.26100
H630        H  0.07092918  0.41807794  0.02519298     0.26100
N631        N  0.53140968  0.42713012  0.99947355    -0.36700
N632        N  0.57187557  0.46994733  0.99770121    -0.57200
N633        N  0.61448002  0.42921697  0.00119920    -0.36700
N634        N  0.57407228  0.38632850  0.00004556    -0.57200
C635        C  0.51538069  0.44857768  0.99454976     0.26900
C636        C  0.51645451  0.40457263  0.99635704     0.26900
C637        C  0.62960855  0.45164649  0.99805208     0.26900
C638        C  0.63082026  0.40755762  0.99865777     0.26900
C639        C  0.54963608  0.48551261  0.99844598     0.35500
C640        C  0.59316283  0.48667014  0.00013215     0.35500
C641        C  0.55261678  0.36976740  0.00230708     0.35500
C642        C  0.59626795  0.37081928  0.00244176     0.35500
C643        C  0.48969751  0.43952806  0.98870340    -0.22000
C644        C  0.49035946  0.41185303  0.98987587    -0.22000
C645        C  0.65612348  0.44410350  0.99398399    -0.22000
C646        C  0.65686404  0.41639257  0.99430109    -0.22000
C647        C  0.55686628  0.51238150  0.00094219    -0.23000
C648        C  0.58437519  0.51311613  0.00200923    -0.23000
C649        C  0.56127191  0.34346796  0.00583237    -0.23000
C650        C  0.58883351  0.34413213  0.00591457    -0.23000
C651        C  0.52290056  0.47611550  0.99594234    -0.18400
C652        C  0.52534572  0.37762246  0.99981963    -0.18400
C653        C  0.62318485  0.38005039  0.00070735    -0.18400
C654        C  0.62046889  0.47874198  0.99941223    -0.18400
H655        H  0.47221611  0.45159226  0.98411889     0.14500
H656        H  0.47344403  0.39863732  0.98640108     0.14500
H657        H  0.67327197  0.45715660  0.99111192     0.14500
H658        H  0.67464058  0.40416230  0.99167011     0.14500
H659        H  0.54372148  0.52971024  0.00168161     0.12800
H660        H  0.59649994  0.53113383  0.00369313     0.12800
H661        H  0.54902638  0.32557516  0.00782313     0.12800
H662        H  0.60189476  0.32687060  0.00812521     0.12800
H663        H  0.55114048  0.42784702  0.00565050     0.26100
H664        H  0.59431806  0.42878804  0.00570777     0.26100
N665        N  0.07121460  0.38462077  0.49745915    -0.36700
N666        N  0.07121320  0.42480644  0.54029811    -0.57200
N667        N  0.07137281  0.46779375  0.49993176    -0.36700
N668        N  0.07438843  0.42754474  0.45706006    -0.57200
C669        C  0.07557106  0.36855097  0.51898719     0.26900
C670        C  0.07626260  0.36992380  0.47510222     0.26900
C671        C  0.07486081  0.48252827  0.52261849     0.26900
C672        C  0.07661421  0.48397476  0.47865564     0.26900
C673        C  0.06803241  0.40246857  0.55547501     0.35500
C674        C  0.06751418  0.44613971  0.55680052     0.35500
C675        C  0.07114795  0.40616334  0.44047681     0.35500
C676        C  0.07190381  0.44987928  0.44172397     0.35500
C677        C  0.08309218  0.34312748  0.51013941    -0.22000
C678        C  0.08348601  0.34397788  0.48249332    -0.22000
C679        C  0.08199785  0.50861899  0.51562140    -0.22000
C680        C  0.08308024  0.50952617  0.48794812    -0.22000
C681        C  0.06261734  0.40964645  0.58187365    -0.23000
C682        C  0.06226116  0.43727414  0.58271764    -0.23000
C683        C  0.06704340  0.41495190  0.41434644    -0.23000
C684        C  0.06752427  0.44261179  0.41513078    -0.23000
C685        C  0.07174913  0.37574400  0.54631676    -0.18400
C686        C  0.07335088  0.37883042  0.44821526    -0.18400
C687        C  0.07457690  0.47672737  0.45109597    -0.18400
C688        C  0.07079514  0.47345660  0.54939436    -0.18400
H689        H  0.08759907  0.32564444  0.52228848     0.14500
H690        H  0.08840619  0.32728415  0.46935979     0.14500
H691        H  0.08583952  0.52538494  0.52902710     0.14500
H692        H  0.08793584  0.52708468  0.47603683     0.14500
H693        H  0.05969360  0.39639821  0.59887098     0.12800
H694        H  0.05898906  0.44941786  0.60052012     0.12800
H695        H  0.06427868  0.40272295  0.39651288     0.12800
H696        H  0.06508691  0.45584000  0.39802901     0.12800
H697        H  0.06384640  0.40407318  0.49786296     0.26100
H698        H  0.06454383  0.44816449  0.49901842     0.26100
N699        N  0.61254836  0.92545181  0.50400662    -0.36700
N700        N  0.56926959  0.92592594  0.54383293    -0.57200
N701        N  0.52946508  0.92428105  0.50015301    -0.36700
N702        N  0.57274121  0.92645421  0.46037796    -0.57200
C703        C  0.62704245  0.92925187  0.52677338     0.26900
C704        C  0.62885295  0.93031662  0.48275159     0.26900
C705        C  0.51284008  0.92735665  0.52148622     0.26900
C706        C  0.51472273  0.92721282  0.47744595     0.26900
C707        C  0.59033664  0.92330846  0.56082046     0.35500
C708        C  0.54674612  0.92339435  0.55881265     0.35500
C709        C  0.59531134  0.92481883  0.44535680     0.35500
C710        C  0.55176471  0.92354243  0.44332724     0.35500
C711        C  0.65311725  0.93615680  0.51984683    -0.22000
C712        C  0.65424253  0.93687063  0.49217226    -0.22000
C713        C  0.48699487  0.93192411  0.51218714    -0.22000
C714        C  0.48816714  0.93179644  0.48449178    -0.22000
C715        C  0.58111018  0.91950189  0.58684596    -0.23000
C716        C  0.55359173  0.91960528  0.58558741    -0.23000
C717        C  0.58858247  0.92126574  0.41850127    -0.23000
C718        C  0.56109433  0.92044591  0.41722688    -0.23000
C719        C  0.61776855  0.92572079  0.55358263    -0.18400
C720        C  0.62188949  0.92791870  0.45511408    -0.18400
C721        C  0.52427766  0.92499386  0.45057002    -0.18400
C722        C  0.52003252  0.92530166  0.54907936    -0.18400
H723        H  0.66972353  0.94018510  0.53328998     0.14500
H724        H  0.67188439  0.94150645  0.48036912     0.14500
H725        H  0.46906434  0.93489351  0.52410118     0.14500
H726        H  0.47128535  0.93463254  0.47110756     0.14500
H727        H  0.59293891  0.91722505  0.60495448     0.12800
H728        H  0.54017088  0.91731084  0.60253981     0.12800
H729        H  0.60202588  0.91976666  0.40147304     0.12800
H730        H  0.54935298  0.91818131  0.39904940     0.12800
H731        H  0.59299412  0.91866837  0.50300813     0.26100
H732        H  0.54954122  0.91941623  0.50106215     0.26100
C733        C  0.76157946  0.60204795  0.85106911     0.01300
C734        C  0.74590920  0.57995033  0.84260006     0.04100
C735        C  0.73125641  0.56501408  0.86158327    -0.12000
C736        C  0.73246945  0.57205669  0.88898920     0.23400
C737        C  0.74896772  0.59344516  0.89757053    -0.12500
C738        C  0.76353875  0.60842470  0.87862467     0.04800
C739        C  0.71557305  0.55785802  0.90882812     0.27200
C740        C  0.69033790  0.56860047  0.91570441    -0.13200
C741        C  0.67536105  0.55695704  0.93656773     0.05300
C742        C  0.68560896  0.53459786  0.95051235    -0.09200
C743        C  0.71035449  0.52321242  0.94300058     0.06100
C744        C  0.72540764  0.53488769  0.92215147    -0.13600
Br745      Br  0.75152472  0.60208677  0.93536514    -0.05600
Br746      Br  0.74397804  0.57058740  0.80496996     0.00000
Br747      Br  0.64148517  0.57247903  0.94716152     0.00400
Br748      Br  0.76017138  0.52058516  0.91288046    -0.04000
Br749      Br  0.78720766  0.63683272  0.89054291     0.00500
Br750      Br  0.70931311  0.53506613  0.85023529    -0.03300
Br751      Br  0.67715475  0.60027619  0.89757890    -0.04100
Br752      Br  0.72407741  0.49247431  0.96223757    -0.00200
C753        C  0.74830078  0.77402973  0.68620243     0.01300
C754        C  0.72235763  0.76674804  0.67714686     0.04100
C755        C  0.70688989  0.78520040  0.66228491    -0.12000
C756        C  0.71747685  0.81064896  0.65580042     0.23400
C757        C  0.74359113  0.81762986  0.66409241    -0.12500
C758        C  0.75869053  0.79971322  0.67985271     0.04800
C759        C  0.70051959  0.83113998  0.64234591     0.27200
C760        C  0.70131372  0.83425829  0.61420396    -0.13200
C761        C  0.68785208  0.85599268  0.60199237     0.05300
C762        C  0.67372238  0.87473972  0.61799193    -0.09200
C763        C  0.67188160  0.87073484  0.64603521     0.06100
C764        C  0.68516115  0.84893459  0.65814308    -0.13600
Br765      Br  0.75835479  0.85221531  0.65436444    -0.05600
Br766      Br  0.70788151  0.73144917  0.68462712     0.00000
Br767      Br  0.69076167  0.86128594  0.56367731     0.00400
Br768      Br  0.68343001  0.84400496  0.69662628    -0.04000
Br769      Br  0.79234975  0.81172900  0.69500217     0.00500
Br770      Br  0.67089941  0.77606626  0.65125224    -0.03300
Br771      Br  0.72212529  0.80953133  0.59273393    -0.04100
Br772      Br  0.65148617  0.89539682  0.66805175    -0.00200
C773        C  0.75734272  0.24941189  0.85013399     0.01300
C774        C  0.73033674  0.25577981  0.84463047     0.04100
C775        C  0.71443123  0.26843909  0.86441552    -0.12000
C776        C  0.72543693  0.27464941  0.88980958     0.23400
C777        C  0.75234350  0.26797586  0.89540080    -0.12500
C778        C  0.76826357  0.25547577  0.87560256     0.04800
C779        C  0.70897404  0.28849674  0.91063985     0.27200
C780        C  0.70920267  0.31683448  0.91245459    -0.13200
C781        C  0.69541534  0.32996947  0.93347679     0.05300
C782        C  0.68150081  0.31476873  0.95295228    -0.09200
C783        C  0.68051550  0.28643448  0.95054182     0.06100
C784        C  0.69428226  0.27334399  0.92950722    -0.13600
Br785      Br  0.76720109  0.27567675  0.93043350    -0.05600
Br786      Br  0.71540280  0.24768915  0.80975306     0.00000
Br787      Br  0.69744646  0.36864483  0.93671118     0.00400
Br788      Br  0.69422735  0.23454715  0.92722418    -0.04000
Br789      Br  0.80477839  0.24561593  0.88377045     0.00500
Br790      Br  0.67752310  0.27723710  0.85693626    -0.03300
Br791      Br  0.72986597  0.33745895  0.88695801    -0.04100
Br792      Br  0.66034644  0.26548912  0.97622480    -0.00200
C793        C  0.68071678  0.97237786  0.61485361     0.01300
C794        C  0.70693530  0.97864870  0.60633536     0.04100
C795        C  0.72113957  0.99991706  0.61856833    -0.12000
C796        C  0.70915934  0.01496931  0.63942977     0.23400
C797        C  0.68272369  0.00898397  0.64760810    -0.12500
C798        C  0.66857696  0.98763256  0.63541917     0.04800
C799        C  0.72479091  0.03605171  0.65385285     0.27200
C800        C  0.74251053  0.02862012  0.67465533    -0.13200
C801        C  0.75672784  0.04851536  0.68895186     0.05300
C802        C  0.75252980  0.07597951  0.68325283    -0.09200
C803        C  0.73500741  0.08345816  0.66233530     0.06100
C804        C  0.72144911  0.06348920  0.64738193    -0.13600
Br805      Br  0.66644276  0.02932843  0.67639436    -0.05600
Br806      Br  0.72361722  0.95737363  0.57845118     0.00000
Br807      Br  0.78170010  0.03820990  0.71676050     0.00400
Br808      Br  0.69829531  0.07352631  0.61800541    -0.04000
Br809      Br  0.63321670  0.97812931  0.64796889     0.00500
Br810      Br  0.75736189  0.00787185  0.60748331    -0.03300
Br811      Br  0.74671590  0.99116116  0.68403136    -0.04100
Br812      Br  0.72999436  0.12100900  0.65399590    -0.00200
C813        C  0.02507374  0.31169424  0.60579537     0.01300
C814        C  0.01156177  0.32464821  0.62705419     0.04100
C815        C  0.99140583  0.31088675  0.64131584    -0.12000
C816        C  0.98465269  0.28423893  0.63417974     0.23400
C817        C  0.99740313  0.27173114  0.61216595    -0.12500
C818        C  0.01750247  0.28551669  0.59792488     0.04800
C819        C  0.96450387  0.26917340  0.65011247     0.27200
C820        C  0.97226717  0.25587891  0.67388533    -0.13200
C821        C  0.95321576  0.24132545  0.68886996     0.05300
C822        C  0.92634043  0.23996300  0.68004277    -0.09200
C823        C  0.91863593  0.25329143  0.65622543     0.06100
C824        C  0.93768712  0.26789593  0.64132846    -0.13600
Br825      Br  0.98808916  0.23530036  0.60230333    -0.05600
Br826      Br  0.02156549  0.36074592  0.63735764     0.00000
Br827      Br  0.96434717  0.22199866  0.72061224     0.00400
Br828      Br  0.92722440  0.28613736  0.60875041    -0.04000
Br829      Br  0.03493203  0.26855611  0.56769103     0.00500
Br830      Br  0.97377510  0.32797547  0.67137176    -0.03300
Br831      Br  0.00920465  0.25719680  0.68548970    -0.04100
Br832      Br  0.88178382  0.25223972  0.64434878    -0.00200
C833        C  0.02551088  0.53372160  0.61434000     0.01300
C834        C  0.00921123  0.55042273  0.59826964     0.04100
C835        C  0.98823680  0.56535661  0.61007627    -0.12000
C836        C  0.98364010  0.56388338  0.63801627     0.23400
C837        C  0.99937400  0.54652241  0.65392700    -0.12500
C838        C  0.02017358  0.53140309  0.64211131     0.04800
C839        C  0.96296211  0.58123672  0.65094385     0.27200
C840        C  0.96914147  0.60811461  0.65780934    -0.13200
C841        C  0.95006914  0.62417301  0.67124261     0.05300
C842        C  0.92497720  0.61324900  0.67848387    -0.09200
C843        C  0.91873082  0.58644807  0.67146227     0.06100
C844        C  0.93750845  0.57063376  0.65730901    -0.13600
Br845      Br  0.99290988  0.54418900  0.69212853    -0.05600
Br846      Br  0.01684768  0.55445799  0.56043328     0.00000
Br847      Br  0.95867131  0.66089186  0.68060732     0.00400
Br848      Br  0.92843173  0.53449130  0.64632685    -0.04000
Br849      Br  0.04134244  0.50737234  0.66399004     0.00500
Br850      Br  0.96622893  0.58852435  0.58819153    -0.03300
Br851      Br  0.00398139  0.62272645  0.64920528    -0.04100
Br852      Br  0.88426487  0.57157821  0.68093140    -0.00200
C853        C  0.38012282  0.60872147  0.85409292     0.01300
C854        C  0.40290191  0.59521805  0.84419847     0.04100
C855        C  0.41922599  0.58041313  0.86180968    -0.12000
C856        C  0.41298367  0.57941598  0.88940286     0.23400
C857        C  0.39020789  0.59305223  0.89933988    -0.12500
C858        C  0.37365496  0.60753956  0.88160918     0.04800
C859        C  0.43054240  0.56420823  0.90796670     0.27200
C860        C  0.42362317  0.53780133  0.91565067    -0.13200
C861        C  0.43942813  0.52405507  0.93457589     0.05300
C862        C  0.46233170  0.53653202  0.94551490    -0.09200
C863        C  0.47010559  0.56228412  0.93667768     0.06100
C864        C  0.45406544  0.57627106  0.91812452    -0.13600
Br865      Br  0.38184940  0.59195168  0.93721086    -0.05600
Br866      Br  0.41157751  0.59693606  0.80643802     0.00000
Br867      Br  0.42882536  0.48883664  0.94701225     0.00400
Br868      Br  0.46334671  0.61253704  0.90778875    -0.04000
Br869      Br  0.34206307  0.62570897  0.89479615     0.00500
Br870      Br  0.45006304  0.56126617  0.84824199    -0.03300
Br871      Br  0.39180548  0.52105138  0.90117859    -0.04100
Br872      Br  0.50216615  0.57868818  0.95099018    -0.00200
C873        C  0.12298186  0.53074147  0.61078485     0.01300
C874        C  0.13150482  0.55606766  0.60145859     0.04100
C875        C  0.15319756  0.56913780  0.61392418    -0.12000
C876        C  0.16636122  0.55687662  0.63577681     0.23400
C877        C  0.15888285  0.53079065  0.64403140    -0.12500
C878        C  0.13717083  0.51768306  0.63146666     0.04800
C879        C  0.18611610  0.57264612  0.65154852     0.27200
C880        C  0.21341045  0.57280555  0.64426488    -0.13200
C881        C  0.23152833  0.58978238  0.65791709     0.05300
C882        C  0.22227839  0.60671055  0.67876174    -0.09200
C883        C  0.19505124  0.60601704  0.68643037     0.06100
C884        C  0.17706295  0.58888123  0.67296448    -0.13600
Br885      Br  0.17751387  0.51382149  0.67344324    -0.05600
Br886      Br  0.11262308  0.57323104  0.57226528     0.00000
Br887      Br  0.26910622  0.58919646  0.64869430     0.00400
Br888      Br  0.13979406  0.58788579  0.68350942    -0.04000
Br889      Br  0.12592184  0.48250283  0.64333627     0.00500
Br890      Br  0.16399317  0.60451517  0.60212118    -0.03300
Br891      Br  0.22572548  0.54980292  0.61552639    -0.04100
Br892      Br  0.18198102  0.62965949  0.71440575    -0.00200
C893        C  0.39337271  0.77371239  0.68479957     0.01300
C894        C  0.40502527  0.79677848  0.69666723     0.04100
C895        C  0.41891132  0.81543885  0.68061911    -0.12000
C896        C  0.42152820  0.81094738  0.65275484     0.23400
C897        C  0.41046802  0.78762819  0.64098569    -0.12500
C898        C  0.39624232  0.76910728  0.65693803     0.04800
C899        C  0.43388950  0.83195003  0.63561578     0.27200
C900        C  0.41736979  0.85138498  0.62343444    -0.13200
C901        C  0.42887978  0.87269637  0.60893843     0.05300
C902        C  0.45706387  0.87515087  0.60721284    -0.09200
C903        C  0.47360350  0.85515375  0.61866834     0.06100
C904        C  0.46196580  0.83344782  0.63267349    -0.13600
Br905      Br  0.41434694  0.78156341  0.60285405    -0.05600
Br906      Br  0.40044960  0.80389259  0.73461658     0.00000
Br907      Br  0.40582420  0.89864297  0.59154549     0.00400
Br908      Br  0.48437748  0.80642022  0.64906168    -0.04000
Br909      Br  0.38104842  0.73724622  0.64064261     0.00500
Br910      Br  0.43331203  0.84789676  0.69650451    -0.03300
Br911      Br  0.37892420  0.84954965  0.62797097    -0.04100
Br912      Br  0.51214893  0.85859970  0.61739840    -0.00200
C913        C  0.18507963  0.03799507  0.54415210     0.01300
C914        C  0.16884440  0.05239647  0.56247965     0.04100
C915        C  0.18069569  0.06622041  0.58428496    -0.12000
C916        C  0.20880770  0.06637008  0.58740082     0.23400
C917        C  0.22495632  0.05163878  0.56941226    -0.12500
C918        C  0.21312326  0.03712091  0.54818308     0.04800
C919        C  0.22162734  0.08241957  0.60918713     0.27200
C920        C  0.22751334  0.10987433  0.60503618    -0.13200
C921        C  0.24091847  0.12476501  0.62507027     0.05300
C922        C  0.24889350  0.11215753  0.64917787    -0.09200
C923        C  0.24294111  0.08474227  0.65338243     0.06100
C924        C  0.22911069  0.06996435  0.63351173    -0.13600
Br925      Br  0.26347244  0.05194953  0.57356551    -0.05600
Br926      Br  0.13063139  0.05479263  0.55681605     0.00000
Br927      Br  0.24943263  0.16222942  0.61900330     0.00400
Br928      Br  0.22041233  0.03259625  0.63939873    -0.04000
Br929      Br  0.23548561  0.01532350  0.52515476     0.00500
Br930      Br  0.15862243  0.08540471  0.60975881    -0.03300
Br931      Br  0.21778859  0.12684995  0.57155273    -0.04100
Br932      Br  0.25325224  0.06765568  0.68659844    -0.00200
C933        C  0.12239206  0.31306082  0.60389495     0.01300
C934        C  0.13694705  0.32731167  0.62359634     0.04100
C935        C  0.15816917  0.31462098  0.63724086    -0.12000
C936        C  0.16466282  0.28762886  0.63134351     0.23400
C937        C  0.15116810  0.27394130  0.61051991    -0.12500
C938        C  0.13003920  0.28667352  0.59680309     0.04800
C939        C  0.18445914  0.27322029  0.64823241     0.27200
C940        C  0.21177871  0.27289026  0.64101728    -0.13200
C941        C  0.23056973  0.26001090  0.65772034     0.05300
C942        C  0.22208205  0.24784308  0.68179818    -0.09200
C943        C  0.19475643  0.24793305  0.68891133     0.06100
C944        C  0.17590084  0.26038104  0.67200521    -0.13600
Br945      Br  0.16111812  0.23748513  0.60151089    -0.05600
Br946      Br  0.12662682  0.36353190  0.63311721     0.00000
Br947      Br  0.26792256  0.25887499  0.64773684     0.00400
Br948      Br  0.13829634  0.25972453  0.68122627    -0.04000
Br949      Br  0.11119424  0.26790128  0.56854789     0.00500
Br950      Br  0.17780833  0.33372301  0.66475021    -0.03300
Br951      Br  0.22327231  0.29013124  0.60829133    -0.04100
Br952      Br  0.18330393  0.23102941  0.72190594    -0.00200
C953        C  0.38599519  0.07504180  0.68038832     0.01300
C954        C  0.41319718  0.07983460  0.67426292     0.04100
C955        C  0.42833770  0.05999699  0.66080941    -0.12000
C956        C  0.41645905  0.03514466  0.65392152     0.23400
C957        C  0.38947963  0.03008755  0.66075570    -0.12500
C958        C  0.37421440  0.05008824  0.67371802     0.04800
C959        C  0.43233965  0.01417560  0.63971970     0.27200
C960        C  0.42969776  0.01079516  0.61166789    -0.13200
C961        C  0.44361670  0.98995697  0.59843017     0.05300
C962        C  0.46037923  0.97257473  0.61317822    -0.09200
C963        C  0.46350111  0.97636828  0.64113641     0.06100
C964        C  0.44938768  0.99701376  0.65440316    -0.13600
Br965      Br  0.37366953  0.99547082  0.65285029    -0.05600
Br966      Br  0.42951603  0.11376280  0.68379299     0.00000
Br967      Br  0.43799687  0.98381944  0.56050897     0.00400
Br968      Br  0.45227539  0.00100544  0.69291874    -0.04000
Br969      Br  0.33736968  0.04293846  0.68335074     0.00500
Br970      Br  0.46536627  0.06670731  0.65171882    -0.03300
Br971      Br  0.40596500  0.03397514  0.59165676    -0.04100
Br972      Br  0.48685752  0.95291217  0.66134747    -0.00200
C973        C  0.46596885  0.31663097  0.94893881     0.01300
C974        C  0.47335799  0.29052461  0.94074363     0.04100
C975        C  0.45970645  0.27790026  0.91946009    -0.12000
C976        C  0.43858282  0.29136987  0.90633503     0.23400
C977        C  0.43167303  0.31781508  0.91400840    -0.12500
C978        C  0.44527902  0.33040258  0.93543102     0.04800
C979        C  0.42236642  0.27681043  0.88599148     0.27200
C980        C  0.43089257  0.27559880  0.85901785    -0.13200
C981        C  0.41631340  0.26024509  0.84019159     0.05300
C982        C  0.39311096  0.24617482  0.84832484    -0.09200
C983        C  0.38429508  0.24788976  0.87523356     0.06100
C984        C  0.39896622  0.26309638  0.89404157    -0.13600
Br985      Br  0.40257487  0.33603820  0.89608799    -0.05600
Br986      Br  0.50135061  0.27159886  0.95973020     0.00000
Br987      Br  0.42769228  0.25908940  0.80312669     0.00400
Br988      Br  0.38755628  0.26453452  0.93113171    -0.04000
Br989      Br  0.43411786  0.36550891  0.94776491     0.00500
Br990      Br  0.46881263  0.24151726  0.90928676    -0.03300
Br991      Br  0.46273864  0.29476951  0.84812920    -0.04100
Br992      Br  0.35293324  0.22820228  0.88677735    -0.00200
C993        C  0.75288241  0.60288455  0.15425767     0.01300
C994        C  0.72468123  0.60283982  0.15683037     0.04100
C995        C  0.70861146  0.59150955  0.13645247    -0.12000
C996        C  0.72065553  0.58027294  0.11341675     0.23400
C997        C  0.74881448  0.58010805  0.11089558    -0.12500
C998        C  0.76492412  0.59128826  0.13130433     0.04800
C999        C  0.70388933  0.56846055  0.09173684     0.27200
C1000       C  0.69796032  0.54074581  0.09193108    -0.13200
C1001       C  0.68521614  0.52870179  0.06968143     0.05300
C1002       C  0.67749044  0.54462534  0.04745571    -0.09200
C1003       C  0.68177625  0.57280800  0.04824709     0.06100
C1004       C  0.69533790  0.58457824  0.07013706    -0.13600
Br1005     Br  0.76519280  0.56506589  0.07904429    -0.05600
Br1006     Br  0.70806773  0.61759158  0.18866250     0.00000
Br1007     Br  0.68090888  0.49005109  0.06896292     0.00400
Br1008     Br  0.70316526  0.62266977  0.07023989    -0.04000
Br1009     Br  0.80341462  0.59201574  0.12696941     0.00500
Br1010     Br  0.67007331  0.59144685  0.13984519    -0.03300
Br1011     Br  0.70835415  0.51920535  0.12244697    -0.04100
Br1012     Br  0.66885141  0.59560521  0.01958368    -0.00200
C1013       C  0.91696014  0.61015168  0.33137601     0.01300
C1014       C  0.94413150  0.61727416  0.32818614     0.04100
C1015       C  0.96419760  0.60320779  0.34222151    -0.12000
C1016       C  0.95716646  0.58236261  0.36009470     0.23400
C1017       C  0.92990161  0.57580573  0.36398724    -0.12500
C1018       C  0.90982398  0.58951447  0.34942121     0.04800
C1019       C  0.97872734  0.56663286  0.37353685     0.27200
C1020       C  0.98890163  0.54327257  0.36101764    -0.13200
C1021       C  0.01151050  0.53015315  0.37176385     0.05300
C1022       C  0.02422792  0.54051558  0.39487678    -0.09200
C1023       C  0.01352682  0.56327400  0.40796918     0.06100
C1024       C  0.99062715  0.57616478  0.39747908    -0.13600
Br1025     Br  0.92027438  0.54795588  0.38914563    -0.05600
Br1026     Br  0.95377108  0.64668491  0.30476193     0.00000
Br1027     Br  0.02550531  0.49832572  0.35449297     0.00400
Br1028     Br  0.97590392  0.60728055  0.41539465    -0.04000
Br1029     Br  0.87265084  0.57970013  0.35356440     0.00500
Br1030     Br  0.00147174  0.61208754  0.33657126    -0.03300
Br1031     Br  0.97238748  0.52994461  0.32850627    -0.04100
Br1032     Br  0.03104173  0.57732365  0.43962669    -0.00200
C1033       C  0.68094683  0.88214382  0.38974635     0.01300
C1034       C  0.67660401  0.87905828  0.36188787     0.04100
C1035       C  0.68963969  0.85836892  0.34764542    -0.12000
C1036       C  0.70701706  0.84064476  0.36121925     0.23400
C1037       C  0.71071226  0.84318570  0.38922468    -0.12500
C1038       C  0.69772392  0.86396463  0.40347916     0.04800
C1039       C  0.72159194  0.81955205  0.34588612     0.27200
C1040       C  0.70969263  0.79416862  0.34175843    -0.13200
C1041       C  0.72316767  0.77431731  0.32668615     0.05300
C1042       C  0.74870656  0.77980315  0.31562750    -0.09200
C1043       C  0.76043208  0.80545734  0.31950810     0.06100
C1044       C  0.74695387  0.82519314  0.33473769    -0.13600
Br1045     Br  0.73426420  0.81866925  0.40777241    -0.05600
Br1046     Br  0.65285235  0.90338012  0.34322896     0.00000
Br1047     Br  0.70679424  0.73937877  0.32203580     0.00400
Br1048     Br  0.76294459  0.86022345  0.34007203    -0.04000
Br1049     Br  0.70427739  0.86866857  0.44144176     0.00500
Br1050     Br  0.68433843  0.85463737  0.30937202    -0.03300
Br1051     Br  0.67477315  0.78682194  0.35680567    -0.04100
Br1052     Br  0.79413000  0.81437924  0.30250342    -0.00200
C1053       C  0.72344395  0.10496970  0.18343320     0.01300
C1054       C  0.72651469  0.10555816  0.15517959     0.04100
C1055       C  0.70766509  0.09253982  0.13847194    -0.12000
C1056       C  0.68588186  0.07856684  0.14989807     0.23400
C1057       C  0.68299595  0.07763548  0.17807537    -0.12500
C1058       C  0.70161898  0.09086276  0.19480695     0.04800
C1059       C  0.66482224  0.06632854  0.13255000     0.27200
C1060       C  0.64265629  0.08192502  0.12469894    -0.13200
C1061       C  0.62097854  0.06987497  0.11112619     0.05300
C1062       C  0.62070431  0.04172137  0.10631718    -0.09200
C1063       C  0.64360225  0.02630846  0.11325066     0.06100
C1064       C  0.66576728  0.03877943  0.12583388    -0.13600
Br1065     Br  0.65273299  0.05903081  0.19363345    -0.05600
Br1066     Br  0.75700567  0.12344251  0.13928029     0.00000
Br1067     Br  0.59220312  0.09262260  0.09860192     0.00400
Br1068     Br  0.69728333  0.01811948  0.13476835    -0.04000
Br1069     Br  0.69598170  0.09114674  0.23323677     0.00500
Br1070     Br  0.71117259  0.09430665  0.09988787    -0.03300
Br1071     Br  0.64170039  0.11981585  0.13357942    -0.04100
Br1072     Br  0.64420044  0.98777082  0.10791048    -0.00200
C1073       C  0.74984332  0.24583014  0.15336395     0.01300
C1074       C  0.75008092  0.27407063  0.15711221     0.04100
C1075       C  0.73734335  0.29104722  0.13832615    -0.12000
C1076       C  0.72424522  0.27991404  0.11578820     0.23400
C1077       C  0.72340294  0.25174540  0.11239490    -0.12500
C1078       C  0.73629209  0.23476569  0.13097237     0.04800
C1079       C  0.71235426  0.29755959  0.09478593     0.27200
C1080       C  0.68467420  0.30324636  0.09494420    -0.13200
C1081       C  0.67262636  0.31601834  0.07269573     0.05300
C1082       C  0.68847133  0.32385967  0.05043706    -0.09200
C1083       C  0.71660338  0.32012126  0.05145561     0.06100
C1084       C  0.72837846  0.30655920  0.07329397    -0.13600
Br1085     Br  0.70499658  0.23649875  0.08175478    -0.05600
Br1086     Br  0.76717862  0.28956208  0.18835446     0.00000
Br1087     Br  0.63414147  0.32029200  0.07203883     0.00400
Br1088     Br  0.76635843  0.29893102  0.07319687    -0.04000
Br1089     Br  0.73693021  0.19644294  0.12445274     0.00500
Br1090     Br  0.73784518  0.32958939  0.14320878    -0.03300
Br1091     Br  0.66318467  0.29216872  0.12522697    -0.04100
Br1092     Br  0.73933792  0.33378533  0.02309074    -0.00200
C1093       C  0.75774020  0.07693368  0.32332210     0.01300
C1094       C  0.75340554  0.05040306  0.31399454     0.04100
C1095       C  0.73842596  0.03216986  0.32960461    -0.12000
C1096       C  0.72812175  0.04018314  0.35477606     0.23400
C1097       C  0.73235119  0.06661618  0.36409794    -0.12500
C1098       C  0.74684375  0.08506277  0.34829712     0.04800
C1099       C  0.71346126  0.02045704  0.37166897     0.27200
C1100       C  0.68531362  0.01832393  0.36990704    -0.13200
C1101       C  0.67177347  0.99768184  0.38379791     0.05300
C1102       C  0.68644231  0.97907987  0.39931125    -0.09200
C1103       C  0.71442446  0.98216134  0.40218502     0.06100
C1104       C  0.72789813  0.00284674  0.38845015    -0.13600
Br1105     Br  0.71862398  0.07724055  0.39880978    -0.05600
Br1106     Br  0.76938383  0.03832832  0.28071653     0.00000
Br1107     Br  0.63350969  0.99353488  0.37975681     0.00400
Br1108     Br  0.76633668  0.00635130  0.39152466    -0.04000
Br1109     Br  0.75083542  0.12177121  0.36056198     0.00500
Br1110     Br  0.73239479  0.99590368  0.31687399    -0.03300
Br1111     Br  0.66565991  0.04277034  0.34716161    -0.04100
Br1112     Br  0.73441257  0.95739339  0.42437715    -0.00200
C1113       C  0.25821051  0.57714226  0.17364580     0.01300
C1114       C  0.25487339  0.55081552  0.18381280     0.04100
C1115       C  0.23968622  0.53184095  0.16934541    -0.12000
C1116       C  0.22796696  0.53900596  0.14460547     0.23400
C1117       C  0.23116617  0.56521978  0.13443383    -0.12500
C1118       C  0.24626958  0.58430534  0.14891594     0.04800
C1119       C  0.21300894  0.51852125  0.12901435     0.27200
C1120       C  0.22709922  0.50058135  0.11221315    -0.13200
C1121       C  0.21356484  0.47892051  0.10012076     0.05300
C1122       C  0.18590362  0.47532075  0.10464652    -0.09200
C1123       C  0.17148171  0.49416671  0.12013757     0.06100
C1124       C  0.18507865  0.51577489  0.13238504    -0.13600
Br1125     Br  0.21492953  0.57468985  0.10052669    -0.05600
Br1126     Br  0.27246276  0.54002938  0.21670165     0.00000
Br1127     Br  0.23300351  0.45364097  0.07791443     0.00400
Br1128     Br  0.16586507  0.54080310  0.15498153    -0.04000
Br1129     Br  0.24985076  0.62043006  0.13515746     0.00500
Br1130     Br  0.23522645  0.49575251  0.18309633    -0.03300
Br1131     Br  0.26517852  0.50506963  0.10684362    -0.04100
Br1132     Br  0.13361421  0.48911274  0.12641768    -0.00200
C1133       C  0.39611421  0.61097944  0.14637431     0.01300
C1134       C  0.39970909  0.58313508  0.15042606     0.04100
C1135       C  0.41318194  0.56763829  0.13096928    -0.12000
C1136       C  0.42292570  0.57995724  0.10743820     0.23400
C1137       C  0.41973361  0.60786049  0.10357684    -0.12500
C1138       C  0.40650628  0.62341553  0.12311140     0.04800
C1139       C  0.43541555  0.56347757  0.08605130     0.27200
C1140       C  0.46351126  0.56100311  0.08462498    -0.13200
C1141       C  0.47540209  0.54752841  0.06275599     0.05300
C1142       C  0.45908731  0.53589575  0.04264053    -0.09200
C1143       C  0.43084314  0.53744116  0.04480240     0.06100
C1144       C  0.41908771  0.55151915  0.06628473    -0.13600
Br1145     Br  0.43286862  0.62453219  0.07108516    -0.05600
Br1146     Br  0.38701281  0.56644577  0.18303806     0.00000
Br1147     Br  0.51396678  0.54741033  0.05922690     0.00400
Br1148     Br  0.38058314  0.55555197  0.06814439    -0.04000
Br1149     Br  0.40164798  0.66157777  0.11736790     0.00500
Br1150     Br  0.41816657  0.52949996  0.13624712    -0.03300
Br1151     Br  0.48559242  0.57716295  0.11214009    -0.04100
Br1152     Br  0.40797938  0.52030490  0.01842591    -0.00200
C1153       C  0.22351916  0.60509732  0.31258602     0.01300
C1154       C  0.22843175  0.57827340  0.32086345     0.04100
C1155       C  0.20933556  0.56443823  0.33654879    -0.12000
C1156       C  0.18548088  0.57734522  0.34452142     0.23400
C1157       C  0.18066521  0.60414322  0.33666707    -0.12500
C1158       C  0.19935348  0.61786659  0.32044604     0.04800
C1159       C  0.16446819  0.56218265  0.35943844     0.27200
C1160       C  0.14493870  0.54765012  0.34499222    -0.13200
C1161       C  0.12378605  0.53488239  0.35867373     0.05300
C1162       C  0.12185974  0.53664668  0.38695625    -0.09200
C1163       C  0.14228339  0.54992778  0.40156285     0.06100
C1164       C  0.16345141  0.56284231  0.38777830    -0.13600
Br1165     Br  0.14792661  0.62176133  0.34767050    -0.05600
Br1166     Br  0.26157832  0.56039111  0.31158981     0.00000
Br1167     Br  0.09774400  0.51435433  0.33852643     0.00400
Br1168     Br  0.19063414  0.58228597  0.40745990    -0.04000
Br1169     Br  0.19043457  0.65338399  0.30733410     0.00500
Br1170     Br  0.21544224  0.52750007  0.34684124    -0.03300
Br1171     Br  0.14689887  0.54587676  0.30624786    -0.04100
Br1172     Br  0.14069550  0.55156331  0.44028090    -0.00200
C1173       C  0.47054312  0.87551890  0.38263043     0.01300
C1174       C  0.46209783  0.85309617  0.39801107     0.04100
C1175       C  0.44895171  0.83133635  0.38536890    -0.12000
C1176       C  0.44416269  0.83185380  0.35747691     0.23400
C1177       C  0.45428420  0.85312643  0.34185016    -0.12500
C1178       C  0.46768739  0.87475077  0.35429427     0.04800
C1179       C  0.42664377  0.81123416  0.34484926     0.27200
C1180       C  0.43751965  0.78694759  0.33502926    -0.13200
C1181       C  0.42074526  0.76787754  0.32247964     0.05300
C1182       C  0.39312661  0.77319725  0.31954713    -0.09200
C1183       C  0.38222656  0.79741679  0.32951649     0.06100
C1184       C  0.39895678  0.81637045  0.34219751    -0.13600
Br1185     Br  0.44862982  0.85303441  0.30341938    -0.05600
Br1186     Br  0.46644687  0.85259992  0.43657951     0.00000
Br1187     Br  0.43538089  0.73413629  0.30994010     0.00400
Br1188     Br  0.38411086  0.84974555  0.35547299    -0.04000
Br1189     Br  0.48246904  0.90305130  0.33214874     0.00500
Br1190     Br  0.43609030  0.80128811  0.40629864    -0.03300
Br1191     Br  0.47542646  0.78012928  0.33845257    -0.04100
Br1192     Br  0.34461115  0.80529910  0.32451088    -0.00200
C1193       C  0.25392687  0.11125362  0.34951890     0.01300
C1194       C  0.24874734  0.12015338  0.37589285     0.04100
C1195       C  0.23510758  0.10329799  0.39400042    -0.12000
C1196       C  0.22588725  0.07775081  0.38552515     0.23400
C1197       C  0.23090977  0.06895862  0.35900435    -0.12500
C1198       C  0.24524814  0.08556937  0.34114084     0.04800
C1199       C  0.21056558  0.06058648  0.40455354     0.27200
C1200       C  0.22308401  0.03859149  0.41736036    -0.13200
C1201       C  0.20949762  0.02455248  0.43779124     0.05300
C1202       C  0.18398782  0.03321393  0.44629269    -0.09200
C1203       C  0.17085122  0.05410257  0.43250640     0.06100
C1204       C  0.18393562  0.06746498  0.41131297    -0.13600
Br1205     Br  0.21769058  0.03442913  0.34704024    -0.05600
Br1206     Br  0.26082409  0.15533277  0.38726953     0.00000
Br1207     Br  0.22577883  0.99357323  0.45444406     0.00400
Br1208     Br  0.16592854  0.09608546  0.39232891    -0.04000
Br1209     Br  0.25249748  0.07352482  0.30495338     0.00500
Br1210     Br  0.22927542  0.11513720  0.43055917    -0.03300
Br1211     Br  0.25940795  0.02876105  0.40820546    -0.04100
Br1212     Br  0.13559019  0.06539648  0.44381099    -0.00200
C1213       C  0.52284815  0.03390404  0.10832217     0.01300
C1214       C  0.51224775  0.05846859  0.09904038     0.04100
C1215       C  0.49085421  0.07077533  0.11280655    -0.12000
C1216       C  0.47945942  0.05812459  0.13543516     0.23400
C1217       C  0.48862680  0.03245217  0.14333824    -0.12500
C1218       C  0.51052545  0.02048492  0.12996149     0.04800
C1219       C  0.45982067  0.07301209  0.15234330     0.27200
C1220       C  0.46902520  0.08770148  0.17483909    -0.13200
C1221       C  0.45082896  0.10250963  0.19063939     0.05300
C1222       C  0.42343147  0.10307404  0.18377565    -0.09200
C1223       C  0.41423889  0.08876358  0.16108408     0.06100
C1224       C  0.43236934  0.07352544  0.14550978    -0.13600
Br1225     Br  0.47186997  0.01436398  0.17321554    -0.05600
Br1226     Br  0.52737684  0.07538116  0.06762842     0.00000
Br1227     Br  0.46339241  0.12226174  0.22164074     0.00400
Br1228     Br  0.41978155  0.05346569  0.11476554    -0.04000
Br1229     Br  0.52462351  0.98643042  0.14202233     0.00500
Br1230     Br  0.47814852  0.10571901  0.10169519    -0.03300
Br1231     Br  0.50675488  0.08794036  0.18361242    -0.04100
Br1232     Br  0.37687480  0.09052033  0.15122931    -0.00200
C1233       C  0.18067133  0.37870750  0.11711951     0.01300
C1234       C  0.19310623  0.35799167  0.10221547     0.04100
C1235       C  0.20714053  0.33741750  0.11562552    -0.12000
C1236       C  0.20922245  0.33772638  0.14388406     0.23400
C1237       C  0.19612914  0.35789580  0.15885745    -0.12500
C1238       C  0.18176675  0.37827683  0.14553152     0.04800
C1239       C  0.22645391  0.31764802  0.15760399     0.27200
C1240       C  0.21553335  0.29306551  0.16648088    -0.13200
C1241       C  0.23222954  0.27361997  0.17843735     0.05300
C1242       C  0.25997149  0.27857389  0.18116456    -0.09200
C1243       C  0.27087623  0.30319066  0.17226028     0.06100
C1244       C  0.25405819  0.32286798  0.16091634    -0.13600
Br1245     Br  0.19888657  0.35810993  0.19757561    -0.05600
Br1246     Br  0.19332590  0.35912813  0.06342508     0.00000
Br1247     Br  0.21726363  0.23981924  0.19028403     0.00400
Br1248     Br  0.26860651  0.35731778  0.15045600    -0.04000
Br1249     Br  0.16391087  0.40588377  0.16631330     0.00500
Br1250     Br  0.22467366  0.30932733  0.09533705    -0.03300
Br1251     Br  0.17767067  0.28625062  0.16225334    -0.04100
Br1252     Br  0.30873741  0.31031274  0.17638147    -0.00200
C1253       C  0.39757475  0.24083899  0.14920775     0.01300
C1254       C  0.40304111  0.26831392  0.15383398     0.04100
C1255       C  0.41755150  0.28322755  0.13468257    -0.12000
C1256       C  0.42601035  0.27087682  0.11060309     0.23400
C1257       C  0.42032795  0.24347054  0.10587366    -0.12500
C1258       C  0.40640257  0.22838424  0.12527521     0.04800
C1259       C  0.43914802  0.28708038  0.08933349     0.27200
C1260       C  0.42320638  0.29986835  0.06984650    -0.13200
C1261       C  0.43533870  0.31382409  0.04853385     0.05300
C1262       C  0.46362560  0.31483198  0.04638532    -0.09200
C1263       C  0.47960872  0.30253009  0.06633639     0.06100
C1264       C  0.46732703  0.28877582  0.08785507    -0.13600
Br1265     Br  0.43088345  0.22692614  0.07234197    -0.05600
Br1266     Br  0.39102430  0.28537240  0.18658093     0.00000
Br1267     Br  0.41283164  0.33163978  0.02237611     0.00400
Br1268     Br  0.48891049  0.27131472  0.11487560    -0.04000
Br1269     Br  0.39823492  0.19095042  0.11843604     0.00500
Br1270     Br  0.42567821  0.32066087  0.14112738    -0.03300
Br1271     Br  0.38458546  0.29738720  0.07199014    -0.04100
Br1272     Br  0.51818583  0.30250478  0.06318337    -0.00200
C1273       C  0.39251386  0.07758939  0.32165812     0.01300
C1274       C  0.39931018  0.05279418  0.30931444     0.04100
C1275       C  0.41531086  0.03399509  0.32306833    -0.12000
C1276       C  0.42426012  0.03949300  0.34936744     0.23400
C1277       C  0.41813109  0.06436811  0.36152545    -0.12500
C1278       C  0.40234179  0.08342243  0.34774252     0.04800
C1279       C  0.43776496  0.01789920  0.36494638     0.27200
C1280       C  0.42199964  0.99827873  0.37790819    -0.13200
C1281       C  0.43426723  0.97606635  0.39033077     0.05300
C1282       C  0.46242849  0.97327852  0.38981847    -0.09200
C1283       C  0.47828543  0.99325857  0.37738197     0.06100
C1284       C  0.46595156  0.01565238  0.36512813    -0.13600
Br1285     Br  0.43108418  0.07195425  0.39731149    -0.05600
Br1286     Br  0.38507282  0.04319489  0.27441235     0.00000
Br1287     Br  0.41232772  0.94929500  0.40788291     0.00400
Br1288     Br  0.48743781  0.04270475  0.34755634    -0.04000
Br1289     Br  0.39485256  0.11767336  0.36460667     0.00500
Br1290     Br  0.42434263  0.00005029  0.30631194    -0.03300
Br1291     Br  0.38338492  0.00141575  0.37762545    -0.04100
Br1292     Br  0.51666456  0.98876956  0.37498656    -0.00200
C1293       C  0.02435229  0.31652514  0.38853805     0.01300
C1294       C  0.02055750  0.28833434  0.38898743     0.04100
C1295       C  0.99829187  0.27670897  0.37617489    -0.12000
C1296       C  0.97941234  0.29314649  0.36315179     0.23400
C1297       C  0.98205441  0.32136989  0.36410979    -0.12500
C1298       C  0.00453761  0.33311639  0.37675098     0.04800
C1299       C  0.95839839  0.28030208  0.34644172     0.27200
C1300       C  0.96367436  0.27521954  0.31906455    -0.13200
C1301       C  0.94539199  0.26018432  0.30365023     0.05300
C1302       C  0.92192407  0.24990313  0.31567893    -0.09200
C1303       C  0.91645354  0.25526509  0.34297685     0.06100
C1304       C  0.93460019  0.27066764  0.35830353    -0.13600
Br1305     Br  0.95532417  0.34364308  0.34707554    -0.05600
Br1306     Br  0.04535871  0.26529529  0.40766244     0.00000
Br1307     Br  0.95323792  0.25247609  0.26637058     0.00400
Br1308     Br  0.92726730  0.27827014  0.39562613    -0.04000
Br1309     Br  0.00885295  0.37173494  0.37614165     0.00500
Br1310     Br  0.99409389  0.23800761  0.37540096    -0.03300
Br1311     Br  0.99655936  0.28804123  0.30302071    -0.04100
Br1312     Br  0.88390770  0.24190209  0.35917846    -0.00200
C1313       C  0.22689048  0.25193638  0.31631315     0.01300
C1314       C  0.20012809  0.25234554  0.30723631     0.04100
C1315       C  0.18057134  0.26672442  0.32169197    -0.12000
C1316       C  0.18776156  0.28092693  0.34517467     0.23400
C1317       C  0.21466597  0.28109934  0.35390171    -0.12500
C1318       C  0.23421322  0.26647014  0.33953942     0.04800
C1319       C  0.16664661  0.29463154  0.36113803     0.27200
C1320       C  0.15950725  0.32149515  0.35549037    -0.13200
C1321       C  0.13730749  0.33326480  0.36849641     0.05300
C1322       C  0.12257460  0.31831911  0.38748381    -0.09200
C1323       C  0.13105404  0.29224926  0.39462322     0.06100
C1324       C  0.15263775  0.28016332  0.38101976    -0.13600
Br1325     Br  0.22454456  0.30147477  0.38543834    -0.05600
Br1326     Br  0.19034504  0.23317724  0.27487479     0.00000
Br1327     Br  0.12644021  0.36946082  0.35968715     0.00400
Br1328     Br  0.16237491  0.24337092  0.38874922    -0.04000
Br1329     Br  0.27094920  0.26613590  0.35161334     0.00500
Br1330     Br  0.14381482  0.26694889  0.30947790    -0.03300
Br1331     Br  0.17961930  0.34167479  0.32925477    -0.04100
Br1332     Br  0.11382533  0.27354547  0.42379684    -0.00200
C1333       C  0.52004059  0.81707553  0.88947137     0.01300
C1334       C  0.51333686  0.79027170  0.89582067     0.04100
C1335       C  0.49093588  0.77799882  0.88374220    -0.12000
C1336       C  0.47511761  0.79251798  0.86530698     0.23400
C1337       C  0.48122079  0.81965032  0.85968524    -0.12500
C1338       C  0.50364062  0.83196107  0.87183872     0.04800
C1339       C  0.45378863  0.77830714  0.85004326     0.27200
C1340       C  0.46037310  0.76539509  0.82569460    -0.13200
C1341       C  0.44114253  0.74965079  0.81224662     0.05300
C1342       C  0.41504934  0.74689642  0.82301781    -0.09200
C1343       C  0.40815685  0.76072304  0.84687366     0.06100
C1344       C  0.42757382  0.77630106  0.86043370    -0.13600
Br1345     Br  0.45971711  0.83928589  0.83413988    -0.05600
Br1346     Br  0.53517276  0.77027550  0.92082951     0.00000
Br1347     Br  0.45134987  0.73061459  0.77987411     0.00400
Br1348     Br  0.41854241  0.79471167  0.89338622    -0.04000
Br1349     Br  0.51293307  0.86861010  0.86303185     0.00500
Br1350     Br  0.48266902  0.74078343  0.89124179    -0.03300
Br1351     Br  0.49615942  0.76877556  0.81119344    -0.04100
Br1352     Br  0.37190018  0.75925933  0.86039046    -0.00200
C1353       C  0.61796695  0.81800305  0.88483934     0.01300
C1354       C  0.63787202  0.80632889  0.90133785     0.04100
C1355       C  0.65984670  0.79287311  0.88959877    -0.12000
C1356       C  0.66183697  0.79067989  0.86141384     0.23400
C1357       C  0.64275746  0.80351211  0.84494195    -0.12500
C1358       C  0.62102336  0.81734638  0.85659977     0.04800
C1359       C  0.68304252  0.77361019  0.84906617     0.27200
C1360       C  0.70865288  0.78432701  0.84361380    -0.13200
C1361       C  0.72823175  0.76829102  0.83086105     0.05300
C1362       C  0.72248642  0.74128019  0.82416725    -0.09200
C1363       C  0.69699965  0.73046408  0.83000579     0.06100
C1364       C  0.67727518  0.74663191  0.84226635    -0.13600
Br1365     Br  0.64617518  0.80150489  0.80632727    -0.05600
Br1366     Br  0.63430634  0.80694506  0.93997731     0.00000
Br1367     Br  0.76296528  0.78323686  0.82258394     0.00400
Br1368     Br  0.64210394  0.73202150  0.84942329    -0.04000
Br1369     Br  0.59580067  0.83599870  0.83377787     0.00500
Br1370     Br  0.68692675  0.77663792  0.91203381    -0.03300
Br1371     Br  0.71672289  0.82099263  0.85362114    -0.04100
Br1372     Br  0.68872409  0.69380341  0.82002990    -0.00200
C1373       C  0.25535891  0.28115265  0.81895205     0.01300
C1374       C  0.26643547  0.30550436  0.82858157     0.04100
C1375       C  0.24983135  0.32489110  0.84091971    -0.12000
C1376       C  0.22218909  0.31975114  0.84434705     0.23400
C1377       C  0.21121645  0.29525175  0.83510836    -0.12500
C1378       C  0.22770897  0.27609069  0.82229435     0.04800
C1379       C  0.20497491  0.33966156  0.85866046     0.27200
C1380       C  0.20613391  0.34161936  0.88694538    -0.13200
C1381       C  0.19180841  0.36198104  0.90047582     0.05300
C1382       C  0.17543612  0.37986409  0.88586786    -0.09200
C1383       C  0.17297803  0.37685790  0.85775008     0.06100
C1384       C  0.18805442  0.35711913  0.84410731    -0.13600
Br1385     Br  0.17365170  0.28774254  0.84066807    -0.05600
Br1386     Br  0.30429323  0.31259647  0.82442629     0.00000
Br1387     Br  0.19662641  0.36686093  0.93868043     0.00400
Br1388     Br  0.18652950  0.35485074  0.80539243    -0.04000
Br1389     Br  0.21269847  0.24218706  0.81065438     0.00500
Br1390     Br  0.26487626  0.35863793  0.85309131    -0.03300
Br1391     Br  0.22819549  0.31688360  0.90703034    -0.04100
Br1392     Br  0.14903288  0.40008205  0.83794891    -0.00200
C1393       C  0.17997924  0.47714317  0.89377229     0.01300
C1394       C  0.16367739  0.49905284  0.88594156     0.04100
C1395       C  0.17506155  0.52090732  0.87193991    -0.12000
C1396       C  0.20252641  0.52070001  0.86532660     0.23400
C1397       C  0.21897171  0.49941198  0.87398522    -0.12500
C1398       C  0.20791063  0.47808445  0.88879897     0.04800
C1399       C  0.21430904  0.54255007  0.84886325     0.27200
C1400       C  0.21404864  0.54053857  0.82061351    -0.13200
C1401       C  0.22803282  0.55950002  0.80500078     0.05300
C1402       C  0.24148956  0.58119420  0.81760501    -0.09200
C1403       C  0.24055648  0.58388087  0.84586819     0.06100
C1404       C  0.22737128  0.56431962  0.86146529    -0.13600
Br1405     Br  0.25652939  0.49895179  0.86438931    -0.05600
Br1406     Br  0.12554019  0.49862050  0.89253728     0.00000
Br1407     Br  0.23040200  0.55429562  0.76652737     0.00400
Br1408     Br  0.22760288  0.56681303  0.90019568    -0.04000
Br1409     Br  0.23141527  0.45050394  0.90281591     0.00500
Br1410     Br  0.15299327  0.55071427  0.86066363    -0.03300
Br1411     Br  0.19504344  0.51129770  0.80342988    -0.04100
Br1412     Br  0.25648134  0.61477783  0.86327443    -0.00200
C1413       C  0.62070283  0.03872319  0.88728994     0.01300
C1414       C  0.63447577  0.05904347  0.90150804     0.04100
C1415       C  0.65574424  0.07298852  0.88913686    -0.12000
C1416       C  0.66304008  0.06680415  0.86243984     0.23400
C1417       C  0.64962070  0.04610519  0.84844680    -0.12500
C1418       C  0.62850279  0.03206838  0.86087324     0.04800
C1419       C  0.68353070  0.08320074  0.84835814     0.27200
C1420       C  0.67564499  0.10657617  0.83439535    -0.13200
C1421       C  0.69479370  0.12178031  0.82028353     0.05300
C1422       C  0.72178821  0.11352859  0.81992695    -0.09200
C1423       C  0.72977216  0.09032427  0.83401627     0.06100
C1424       C  0.71062635  0.07510777  0.84820306    -0.13600
Br1425     Br  0.65939379  0.03800793  0.81175901    -0.05600
Br1426     Br  0.62285087  0.06907167  0.93714860     0.00000
Br1427     Br  0.68421028  0.15404671  0.80149394     0.00400
Br1428     Br  0.72130695  0.04307034  0.86721746    -0.04000
Br1429     Br  0.60956521  0.00426791  0.84144726     0.00500
Br1430     Br  0.67409792  0.10145687  0.90814734    -0.03300
Br1431     Br  0.63850550  0.11749968  0.83437477    -0.04100
Br1432     Br  0.76695738  0.07961419  0.83387147    -0.00200
C1433       C  0.42011696  0.10584904  0.81599986     0.01300
C1434       C  0.41473763  0.09890806  0.84293177     0.04100
C1435       C  0.43356886  0.08376670  0.85766481    -0.12000
C1436       C  0.45782158  0.07567931  0.84551710     0.23400
C1437       C  0.46290716  0.08216947  0.81842074    -0.12500
C1438       C  0.44417065  0.09734014  0.80374250     0.04800
C1439       C  0.47920459  0.06275735  0.86177035     0.27200
C1440       C  0.49804049  0.07912956  0.87512922    -0.13200
C1441       C  0.51979589  0.06739513  0.88870865     0.05300
C1442       C  0.52317832  0.03913848  0.88858614    -0.09200
C1443       C  0.50380365  0.02266869  0.87591562     0.06100
C1444       C  0.48178781  0.03450445  0.86260179    -0.13600
Br1445     Br  0.49587754  0.07065321  0.80162618    -0.05600
Br1446     Br  0.38142614  0.10977270  0.85939608     0.00000
Br1447     Br  0.54486936  0.09028527  0.90764928     0.00400
Br1448     Br  0.45577207  0.01224681  0.84437177    -0.04000
Br1449     Br  0.45206322  0.10769046  0.76716216     0.00500
Br1450     Br  0.42642083  0.07415955  0.89452062    -0.03300
Br1451     Br  0.49458485  0.11784996  0.87367860    -0.04100
Br1452     Br  0.50840660  0.98409882  0.87488042    -0.00200
C1453       C  0.96274552  0.47975569  0.89496740     0.01300
C1454       C  0.97435038  0.48978639  0.87122087     0.04100
C1455       C  0.96239404  0.51157715  0.85778689    -0.12000
C1456       C  0.93871936  0.52320747  0.86803955     0.23400
C1457       C  0.92794047  0.51408141  0.89258733    -0.12500
C1458       C  0.93995685  0.49231205  0.90603742     0.04800
C1459       C  0.92364203  0.54283292  0.85150616     0.27200
C1460       C  0.92938343  0.57056826  0.85308129    -0.13200
C1461       C  0.91580872  0.58877935  0.83621944     0.05300
C1462       C  0.89620356  0.57928423  0.81810522    -0.09200
C1463       C  0.88971191  0.55165936  0.81734568     0.06100
C1464       C  0.90373495  0.53341149  0.83368757    -0.13600
Br1465     Br  0.89588499  0.53048894  0.90685596    -0.05600
Br1466     Br  0.00573119  0.47256711  0.85638829     0.00000
Br1467     Br  0.92313254  0.62684867  0.83869526     0.00400
Br1468     Br  0.89608568  0.49533645  0.83140410    -0.04000
Br1469     Br  0.92444234  0.47862287  0.93881581     0.00500
Br1470     Br  0.97742205  0.52452468  0.82448490    -0.03300
Br1471     Br  0.95569806  0.58342808  0.87845573    -0.04100
Br1472     Br  0.86185335  0.53871279  0.79362506    -0.00200
C1473       C  0.95683429  0.38175238  0.89474352     0.01300
C1474       C  0.92866397  0.38016314  0.89154775     0.04100
C1475       C  0.91712502  0.35863286  0.87717891    -0.12000
C1476       C  0.93345443  0.33794845  0.86682073     0.23400
C1477       C  0.96132719  0.33850759  0.87148326    -0.12500
C1478       C  0.97311265  0.36058399  0.88492267     0.04800
C1479       C  0.92133963  0.31632252  0.84998845     0.27200
C1480       C  0.90884647  0.29399629  0.86214090    -0.13200
C1481       C  0.89577144  0.27451829  0.84616715     0.05300
C1482       C  0.89578149  0.27688965  0.81785525    -0.09200
C1483       C  0.90883371  0.29899882  0.80570473     0.06100
C1484       C  0.92135377  0.31874822  0.82174915    -0.13600
Br1485     Br  0.98329782  0.30912812  0.85884291    -0.05600
Br1486     Br  0.90549628  0.40706260  0.90737901     0.00000
Br1487     Br  0.87836263  0.24431821  0.86316924     0.00400
Br1488     Br  0.93789061  0.34969408  0.80513878    -0.04000
Br1489     Br  0.01169972  0.36258787  0.88765616     0.00500
Br1490     Br  0.87890150  0.35778414  0.87089946    -0.03300
Br1491     Br  0.90976660  0.29027135  0.90074370    -0.04100
Br1492     Br  0.90815552  0.30330404  0.76710244    -0.00200
C1493       C  0.96847419  0.37770568  0.11941990     0.01300
C1494       C  0.96809178  0.37550025  0.14770990     0.04100
C1495       C  0.95467817  0.35386188  0.15998666    -0.12000
C1496       C  0.94188250  0.33424306  0.14400587     0.23400
C1497       C  0.94394997  0.33534049  0.11578930    -0.12500
C1498       C  0.95706303  0.35714644  0.10345061     0.04800
C1499       C  0.92409069  0.31402285  0.15668027     0.27200
C1500       C  0.93365639  0.28802747  0.16261358    -0.13200
C1501       C  0.91640557  0.26894565  0.17437794     0.05300
C1502       C  0.88963380  0.27591329  0.18029075    -0.09200
C1503       C  0.88011541  0.30192948  0.17440300     0.06100
C1504       C  0.89726283  0.32090502  0.16244144    -0.13600
Br1505     Br  0.92733592  0.30768407  0.09412445    -0.05600
Br1506     Br  0.98566429  0.40236409  0.16966991     0.00000
Br1507     Br  0.92920271  0.23310256  0.18194459     0.00400
Br1508     Br  0.88408147  0.35644031  0.15394070    -0.04000
Br1509     Br  0.95688771  0.36001165  0.06473779     0.00500
Br1510     Br  0.95261451  0.35168335  0.19867712    -0.03300
Br1511     Br  0.97035604  0.27875859  0.15459006    -0.04100
Br1512     Br  0.84393520  0.31195094  0.18392433    -0.00200
C1513       C  0.88900523  0.57194242  0.19145208     0.01300
C1514       C  0.89188772  0.57744816  0.16376390     0.04100
C1515       C  0.90518660  0.55899240  0.14688928    -0.12000
C1516       C  0.91597215  0.53514908  0.15765627     0.23400
C1517       C  0.91355745  0.52982977  0.18539336    -0.12500
C1518       C  0.89997100  0.54810574  0.20225425     0.04800
C1519       C  0.92960582  0.51540337  0.13985353     0.27200
C1520       C  0.91482585  0.49422593  0.12820295    -0.13200
C1521       C  0.92810017  0.47397411  0.11355446     0.05300
C1522       C  0.95634313  0.47448301  0.11098356    -0.09200
C1523       C  0.97087272  0.49678015  0.12099888     0.06100
C1524       C  0.95746208  0.51719455  0.13541735    -0.13600
Br1525     Br  0.92882088  0.49733576  0.20014555    -0.05600
Br1526     Br  0.87873682  0.61088973  0.14911613     0.00000
Br1527     Br  0.90743228  0.44561507  0.09675367     0.00400
Br1528     Br  0.97728694  0.54708574  0.15030788    -0.04000
Br1529     Br  0.89533898  0.53981029  0.23988811     0.00500
Br1530     Br  0.90876550  0.56623513  0.10896829    -0.03300
Br1531     Br  0.87647400  0.49250423  0.13330757    -0.04100
Br1532     Br  0.00931030  0.49864991  0.11683116    -0.00200
C1533       C  0.62179754  0.81826606  0.11075972     0.01300
C1534       C  0.62352908  0.81811306  0.13913353     0.04100
C1535       C  0.64457777  0.80435759  0.15204275    -0.12000
C1536       C  0.66422116  0.79091759  0.13672394     0.23400
C1537       C  0.66339540  0.79230797  0.10841565    -0.12500
C1538       C  0.64213925  0.80579074  0.09542514     0.04800
C1539       C  0.68449139  0.77372320  0.15041539     0.27200
C1540       C  0.70919558  0.78463949  0.15890887    -0.13200
C1541       C  0.72782763  0.76841099  0.17274093     0.05300
C1542       C  0.72183502  0.74119614  0.17813791    -0.09200
C1543       C  0.69721291  0.73021259  0.16938804     0.06100
C1544       C  0.67857225  0.74645781  0.15564921    -0.13600
Br1545     Br  0.69083001  0.77458874  0.08755672    -0.05600
Br1546     Br  0.59689100  0.83662485  0.16047276     0.00000
Br1547     Br  0.76189540  0.78320701  0.18376146     0.00400
Br1548     Br  0.64449045  0.73164807  0.14455207    -0.04000
Br1549     Br  0.63970032  0.80500043  0.05670844     0.00500
Br1550     Br  0.64597895  0.80283303  0.19080600    -0.03300
Br1551     Br  0.71720747  0.82194154  0.15187231    -0.04900
Br1552     Br  0.68841334  0.69322688  0.17735010    -0.00200
C1553       C  0.42449912  0.74683665  0.18067937     0.01300
C1554       C  0.44982740  0.75414219  0.19092384     0.04100
C1555       C  0.46869713  0.76680774  0.17414478    -0.12000
C1556       C  0.46207170  0.77284764  0.14724095     0.23400
C1557       C  0.43664113  0.76571607  0.13705571    -0.12500
C1558       C  0.41795059  0.75251808  0.15370463     0.04800
C1559       C  0.48200739  0.78682219  0.12995864     0.27200
C1560       C  0.48529246  0.81495466  0.13203870    -0.13200
C1561       C  0.50660971  0.82781282  0.11859901     0.05300
C1562       C  0.52464708  0.81256891  0.10291767    -0.09200
C1563       C  0.52049819  0.78462086  0.09974004     0.06100
C1564       C  0.49918554  0.77178218  0.11318171    -0.13600
Br1565     Br  0.42751888  0.77410004  0.10034201    -0.05600
Br1566     Br  0.45895180  0.74599945  0.22776470     0.00000
Br1567     Br  0.51249122  0.86589523  0.12367216     0.00400
Br1568     Br  0.49422374  0.73337656  0.10973936    -0.04000
Br1569     Br  0.38305816  0.74287616  0.13988843     0.00500
Br1570     Br  0.50392529  0.77542770  0.18780469    -0.03300
Br1571     Br  0.46131509  0.83555550  0.15452836    -0.04100
Br1572     Br  0.54448658  0.76381394  0.07742765    -0.00200
C1573       C  0.96133586  0.81865070  0.45085026     0.01300
C1574       C  0.93320994  0.82045234  0.44855619     0.04100
C1575       C  0.91983538  0.80699033  0.42762783    -0.12000
C1576       C  0.93454332  0.79207964  0.40856676     0.23400
C1577       C  0.96277649  0.79136911  0.40997470    -0.12500
C1578       C  0.97620424  0.80459794  0.43117602     0.04800
C1579       C  0.91991190  0.77588134  0.38821233     0.27200
C1580       C  0.91132281  0.74969278  0.39472284    -0.13200
C1581       C  0.89457070  0.73534809  0.37697101     0.05300
C1582       C  0.88680028  0.74696917  0.35216058    -0.09200
C1583       C  0.89655174  0.77282544  0.34521652     0.06100
C1584       C  0.91271691  0.78734500  0.36340271    -0.13600
Br1585     Br  0.98274264  0.77095145  0.38371441    -0.05600
Br1586     Br  0.91290551  0.84117902  0.47439219     0.00000
Br1587     Br  0.88099152  0.70060220  0.38799212     0.00400
Br1588     Br  0.92458541  0.82330946  0.35481180    -0.04000
Br1589     Br  0.01465479  0.80158282  0.43444595     0.00500
Br1590     Br  0.88115267  0.80762384  0.42587293    -0.03300
Br1591     Br  0.92190233  0.73396512  0.42861655    -0.04100
Br1592     Br  0.88891326  0.78819764  0.31039932    -0.00200
C1593       C  0.96829165  0.81012876  0.54809647     0.01300
C1594       C  0.96261091  0.78213878  0.54788688     0.04100
C1595       C  0.94767512  0.77043948  0.56887089    -0.12000
C1596       C  0.93966069  0.78613972  0.59104294     0.23400
C1597       C  0.94735197  0.81340820  0.59254032    -0.12500
C1598       C  0.96121536  0.82556303  0.57099381     0.04800
C1599       C  0.92223866  0.77425613  0.61227200     0.27200
C1600       C  0.89410541  0.77630196  0.61017762    -0.13200
C1601       C  0.87744464  0.76480058  0.62999337     0.05300
C1602       C  0.88888391  0.75091886  0.65197915    -0.09200
C1603       C  0.91711511  0.74962320  0.65440535     0.06100
C1604       C  0.93369360  0.76098028  0.63446871    -0.13600
Br1605     Br  0.93780624  0.83426079  0.62388890    -0.05600
Br1606     Br  0.97587338  0.75929497  0.51927225     0.00000
Br1607     Br  0.83896638  0.76713140  0.62610122     0.00400
Br1608     Br  0.97217875  0.75802118  0.63719836    -0.04000
Br1609     Br  0.96835508  0.86375231  0.57245841     0.00500
Br1610     Br  0.93707504  0.73308451  0.56677835    -0.03300
Br1611     Br  0.87848262  0.79418138  0.57951185    -0.04100
Br1612     Br  0.93322451  0.73354517  0.68580922    -0.00200
C1613       C  0.88998420  0.10233650  0.65200327     0.01300
C1614       C  0.88036081  0.09814334  0.62569073     0.04100
C1615       C  0.89584520  0.08357461  0.60704721    -0.12000
C1616       C  0.92105219  0.07322540  0.61464746     0.23400
C1617       C  0.93047640  0.07701814  0.64110632    -0.12500
C1618       C  0.91496175  0.09163637  0.65976898     0.04800
C1619       C  0.93817048  0.05989966  0.59416897     0.27200
C1620       C  0.93553191  0.03210537  0.58899865    -0.13200
C1621       C  0.94928827  0.02032490  0.56720899     0.05300
C1622       C  0.96590667  0.03629679  0.55074842    -0.09200
C1623       C  0.96937826  0.06387255  0.55665227     0.06100
C1624       C  0.95556934  0.07563240  0.57834602    -0.13600
Br1625     Br  0.96469429  0.06230473  0.65153227    -0.05600
Br1626     Br  0.84629875  0.11317463  0.61499519     0.00000
Br1627     Br  0.94339289  0.98293043  0.55839439     0.00400
Br1628     Br  0.95936493  0.11363609  0.58571367    -0.04000
Br1629     Br  0.92769802  0.09692771  0.69601014     0.00500
Br1630     Br  0.88279693  0.07808784  0.57088975    -0.03300
Br1631     Br  0.91198015  0.01060233  0.61098780    -0.04100
Br1632     Br  0.99248037  0.08574457  0.53446545    -0.00200
C1633       C  0.89560216  0.11129003  0.35090905     0.01300
C1634       C  0.90267821  0.12294285  0.37580557     0.04100
C1635       C  0.91626971  0.10756929  0.39523165    -0.12000
C1636       C  0.92275728  0.08046306  0.38987674     0.23400
C1637       C  0.91570977  0.06880080  0.36499635    -0.12500
C1638       C  0.90211487  0.08419131  0.34552974     0.04800
C1639       C  0.93612707  0.06404662  0.41087781     0.27200
C1640       C  0.96433053  0.06349473  0.41273387    -0.13200
C1641       C  0.97688554  0.04950029  0.43390745     0.05300
C1642       C  0.96120583  0.03584153  0.45317987    -0.09200
C1643       C  0.93296375  0.03565703  0.45067415     0.06100
C1644       C  0.92048452  0.04989665  0.42971057    -0.13600
Br1645     Br  0.92457887  0.03167447  0.35784391    -0.05600
Br1646     Br  0.89254757  0.15962444  0.38380306     0.00000
Br1647     Br  0.01537733  0.05099070  0.43765067     0.00400
Br1648     Br  0.88183954  0.05107141  0.42732989    -0.04000
Br1649     Br  0.89285985  0.06838475  0.31130009     0.00500
Br1650     Br  0.92564970  0.12340598  0.42944996    -0.03300
Br1651     Br  0.98556545  0.08305959  0.38688825    -0.04100
Br1652     Br  0.91118993  0.01585239  0.47598734    -0.00200
C1653       C  0.25599397  0.74557851  0.64708561     0.01300
C1654       C  0.23704168  0.76459431  0.65611034     0.04100
C1655       C  0.22201164  0.77949076  0.63739090    -0.12000
C1656       C  0.22572951  0.77514831  0.60964712     0.23400
C1657       C  0.24455515  0.75595916  0.60063958    -0.12500
C1658       C  0.25968387  0.74118705  0.61935892     0.04800
C1659       C  0.20988376  0.79060543  0.58976380     0.27200
C1660       C  0.18513086  0.78043415  0.58052403    -0.13200
C1661       C  0.17160492  0.79342107  0.55938337     0.05300
C1662       C  0.18283360  0.81654376  0.54753761    -0.09200
C1663       C  0.20691553  0.82741567  0.55758891     0.06100
C1664       C  0.22042398  0.81449836  0.57875268    -0.13600
Br1665     Br  0.24979192  0.75025648  0.56259519    -0.05600
Br1666     Br  0.23128165  0.76966750  0.69415245     0.00000
Br1667     Br  0.13845778  0.77885171  0.54559362     0.00400
Br1668     Br  0.25404860  0.82865319  0.59178581    -0.04000
Br1669     Br  0.28602992  0.71548587  0.60711340     0.00500
Br1670     Br  0.19654762  0.80605917  0.64957563    -0.03300
Br1671     Br  0.17061293  0.74792472  0.59593875    -0.04100
Br1672     Br  0.22200940  0.85921556  0.54124026    -0.00200
C1673       C  0.25603660  0.74311673  0.34818361     0.01300
C1674       C  0.26562321  0.74381616  0.37490044     0.04100
C1675       C  0.25254681  0.75973149  0.39433180    -0.12000
C1676       C  0.22966213  0.77476869  0.38724827     0.23400
C1677       C  0.22052059  0.77468035  0.36043508    -0.12500
C1678       C  0.23377950  0.75901710  0.34088249     0.04800
C1679       C  0.21403383  0.78892686  0.40841473     0.27200
C1680       C  0.19378246  0.77488921  0.42233586    -0.13200
C1681       C  0.17942469  0.78770140  0.44305998     0.05300
C1682       C  0.18535081  0.81455744  0.45009192    -0.09200
C1683       C  0.20537069  0.82874667  0.43598431     0.06100
C1684       C  0.21966428  0.81596252  0.41509286    -0.13600
Br1685     Br  0.18950287  0.79573405  0.35077810    -0.05600
Br1686     Br  0.29577276  0.72176865  0.38534839     0.00000
Br1687     Br  0.15183330  0.76834369  0.46220862     0.00400
Br1688     Br  0.24768476  0.83497304  0.39631407    -0.04000
Br1689     Br  0.22204375  0.76007437  0.30393898     0.00500
Br1690     Br  0.26549829  0.76048862  0.43090516    -0.03300
Br1691     Br  0.18648656  0.73770261  0.41358437    -0.04100
Br1692     Br  0.21431694  0.86507039  0.44653269    -0.00200
loop_ 
_geom_bond_atom_site_label_1 
_geom_bond_atom_site_label_2 
_geom_bond_distance 
_geom_bond_site_symmetry_2 
_ccdc_geom_bond_type 
C1            N2   1.361       .  A
C1            N6   1.353       .  A
C1         C1682   1.474       .  S
N2            C3   1.363       .  A
C3            N4   1.361       .  A
C3          C549   1.482       .  S
N4            C5   1.357       .  A
C5            N6   1.352       .  A
C5         C1662   1.468       .  S
C7            N8   1.353       .  A
C7           N12   1.361       .  A
C7         C1642   1.479       .  S
N8            C9   1.352       .  A
C9           N10   1.360       .  A
C9         C1622   1.474       .  S
N10          C11   1.362   1_645  A
C11          N12   1.363   1_465  A
C11         C551   1.485       .  S
C13          N14   1.357       .  A
C13          N18   1.353       .  A
C13        C1573   1.474       .  S
N14          C15   1.361   1_655  A
C15          N16   1.364   1_455  A
C15         C552   1.482       .  S
N16          C17   1.363       .  A
C17          N18   1.354       .  A
C17        C1593   1.490       .  S
C19          N20   1.360       .  A
C19          N24   1.354       .  A
C19        C1562   1.478       .  S
N20          C21   1.363       .  A
C21          N22   1.364       .  A
C21         C586   1.488       .  S
N22          C23   1.363       .  A
C23          N24   1.355       .  A
C23        C1533   1.482       .  S
C25          N26   1.353       .  A
C25          N30   1.357       .  A
C25        C1493   1.474       .  S
N26          C27   1.354       .  A
C27          N28   1.361       .  A
C27        C1522   1.481       .  S
N28          C29   1.363   1_655  A
C29          N30   1.359   1_455  A
C29         C619   1.479       .  S
C31          N32   1.361       .  A
C31          N36   1.356       .  A
C31        C1473   1.485       .  S
N32          C33   1.362       .  A
C33          N34   1.359       .  A
C33         C618   1.479   1_655  S
N34          C35   1.356       .  A
C35          N36   1.354       .  A
C35        C1453   1.468       .  S
C37          N38   1.361       .  A
C37          N42   1.354       .  A
C37        C1442   1.480       .  S
N38          C39   1.363   1_545  A
C39          N40   1.362   1_565  A
C39         C584   1.484       .  S
N40          C41   1.359       .  A
C41          N42   1.353       .  A
C41        C1413   1.472       .  S
C43          N44   1.360       .  A
C43          N48   1.351       .  A
C43        C1382   1.476       .  S
N44          C45   1.363       .  A
C45          N46   1.363       .  A
C45         C617   1.483       .  S
N46          C47   1.360       .  A
C47          N48   1.353       .  A
C47        C1393   1.481       .  S
C49          N50   1.356       .  A
C49          N54   1.358       .  A
C49        C1333   1.474       .  S
N50          C51   1.357       .  A
C51          N52   1.359       .  A
C51        C1353   1.482       .  S
N52          C53   1.360       .  A
C53          N54   1.360       .  A
C53         C585   1.479       .  S
C55          N56   1.357       .  A
C55          N60   1.357       .  A
C55        C1322   1.473       .  S
N56          C57   1.359       .  A
C57          N58   1.360       .  A
C57         C686   1.476       .  S
N58          C59   1.359       .  A
C59          N60   1.358       .  A
C59        C1293   1.482       .  S
O61         Mg63   2.148       .  S
O61         Mg69   2.155       .  S
O61          C96   1.237       .  S
C62          O75   1.238       .  S
C62          O99   1.272       .  A
C62         H101   1.081       .  S
Mg63         O92   2.153       .  S
Mg63        O107   2.312       .  S
Mg63        O103   2.277       .  S
Mg63         O74   2.298       .  S
O64        Mg106   2.146       .  S
O64         Mg89   2.139       .  S
O64          C85   1.237       .  S
O65          C96   1.271       .  A
O65         Mg89   2.300       .  S
C66        C1313   1.473       .  S
C66          O68   1.271       .  A
C66          O80   1.276       .  A
O67          C95   1.270       .  A
O67         Mg69   2.300       .  S
O68        Mg100   2.259       .  S
Mg69         O75   2.136       .  S
Mg69         O83   2.250       .  S
Mg69         O71   2.315       .  S
C70        C1193   1.471       .  S
C70         O108   1.272       .  A
C70          O76   1.275       .  A
O71          C78   1.275       .  A
H72          C85   1.081       .  S
C73          O87   1.237       .  S
C73          O88   1.270       .  A
C73          H98   1.081       .  S
O74          C97   1.270       .  A
O75         Mg89   2.148       .  S
O76        Mg106   2.304       .  S
C77        C1273   1.485       .  S
C77          O90   1.273       .  A
C77          O82   1.274       .  A
C78        C1222   1.474       .  S
C78         O105   1.271       .  A
Mg79         O86   2.137       .  S
Mg79         O87   2.153       .  S
Mg79         O80   2.319       .  S
Mg79         O81   2.300       .  S
Mg79        O108   2.265       .  S
O81          C85   1.271       .  A
O82         Mg89   2.300       .  S
O83         C102   1.271       .  A
O84         C104   1.273       .  A
O84        Mg100   2.294       .  S
O86        Mg100   2.150       .  S
O86          C97   1.237       .  S
O87        Mg106   2.145       .  S
O88        Mg100   2.296       .  S
Mg89        O105   2.264       .  S
O90        Mg106   2.274       .  S
H91          C96   1.081       .  S
O92        Mg100   2.142       .  S
O92          C95   1.236       .  S
H93          C95   1.081       .  S
H94          C97   1.081       .  S
O99        Mg106   2.301       .  S
C102       C1253   1.473       .  S
C102        O107   1.276       .  A
O103        C104   1.273       .  A
C104       C1242   1.475       .  S
C109        N110   1.359       .  A
C109        N114   1.354       .  A
C109       C1282   1.478       .  S
N110        C111   1.361       .  A
C111        N112   1.362       .  A
C111        C721   1.484       .  S
N112        C113   1.361       .  A
C113        N114   1.356       .  A
C113       C1173   1.487       .  S
O115       Mg117   2.147       .  S
O115       Mg123   2.153       .  S
O115        C150   1.237       .  S
C116        O129   1.236       .  S
C116        O153   1.270       .  A
C116        H155   1.081       .  S
Mg117       O146   2.149       .  S
Mg117       O161   2.305       .  S
Mg117       O157   2.272       .  S
Mg117       O128   2.298       .  S
O118       Mg160   2.149       .  S
O118       Mg143   2.126       .  S
O118        C139   1.236       .  S
O119        C150   1.271       .  A
O119       Mg143   2.303       .  S
C120       C1673   1.478       .  S
C120        O122   1.274       .  A
C120        O134   1.273       .  A
O121        C149   1.271       .  A
O121       Mg123   2.301       .  S
O122       Mg154   2.280       .  S
Mg123       O129   2.136       .  S
Mg123       O137   2.257       .  S
Mg123       O125   2.309       .  S
C124       C1182   1.472       .  S
C124        O162   1.271       .  A
C124        O130   1.273       .  A
O125        C132   1.275       .  A
H126        C139   1.081       .  S
C127        O141   1.237       .  S
C127        O142   1.270       .  A
C127        H152   1.081       .  S
O128        C151   1.270       .  A
O129       Mg143   2.149       .  S
O130       Mg160   2.294       .  S
C131       C1553   1.473       .  S
C131        O144   1.271       .  A
C131        O136   1.273       .  A
C132       C1133   1.470       .  S
C132        O159   1.269       .  A
Mg133       O140   2.137       .  S
Mg133       O141   2.154       .  S
Mg133       O134   2.292       .  S
Mg133       O135   2.293       .  S
Mg133       O162   2.259       .  S
O135        C139   1.269       .  A
O136       Mg143   2.299       .  S
O137        C156   1.271       .  A
O138        C158   1.277       .  A
O138       Mg154   2.313       .  S
O140       Mg154   2.151       .  S
O140        C151   1.236       .  S
O141       Mg160   2.137       .  S
O142       Mg154   2.296       .  S
Mg143       O159   2.240       .  S
O144       Mg160   2.265       .  S
H145        C150   1.081       .  S
O146       Mg154   2.147       .  S
O146        C149   1.237       .  S
H147        C149   1.081       .  S
H148        C151   1.081       .  S
O153       Mg160   2.298       .  S
C156       C1113   1.476       .  S
C156        O161   1.275       .  A
O157        C158   1.273       .  A
C158       C1153   1.488       .  S
O163       Mg165   2.136       .  S
O163       Mg171   2.146       .  S
O163        C198   1.236       .  S
C164        O177   1.237       .  S
C164        O201   1.272       .  A
C164        H203   1.081       .  S
Mg165       O194   2.149       .  S
Mg165       O209   2.314       .  S
Mg165       O205   2.253       .  S
Mg165       O176   2.298       .  S
O166       Mg208   2.146       .  S
O166       Mg191   2.131       .  S
O166        C187   1.236       .  S
O167        C198   1.270       .  A
O167       Mg191   2.298       .  S
C168       C1053   1.483       .  S
C168        O170   1.274       .  A
C168        O182   1.276       .  A
O169        C197   1.271       .  A
O169       Mg171   2.303       .  S
O170       Mg202   2.275       .  S
Mg171       O177   2.142       .  S
Mg171       O185   2.263       .  S
Mg171       O173   2.314       .  S
C172       C1073   1.484       .  S
C172        O210   1.275       .  A
C172        O178   1.276       .  A
O173        C180   1.275       .  A
H174        C187   1.081       .  S
C175        O189   1.237       .  S
C175        O190   1.271       .  A
C175        H200   1.081       .  S
O176        C199   1.271       .  A
O177       Mg191   2.150       .  S
O178       Mg208   2.310       .  S
C179       C1502   1.471       .  S
C179        O192   1.272       .  A
C179        O184   1.271       .  A
C180       C1302   1.471       .  S
C180        O207   1.268       .  A
Mg181       O188   2.147       .  S
Mg181       O189   2.153       .  S
Mg181       O182   2.310       .  S
Mg181       O183   2.295       .  S
Mg181       O210   2.280       .  S
O183        C187   1.270       .  A
O184       Mg191   2.287       .  S
O185        C204   1.272       .  A
O186        C206   1.277       .  A
O186       Mg202   2.321       .  S
O188       Mg202   2.154       .  S
O188        C199   1.237       .  S
O189       Mg208   2.138       .  S
O190       Mg202   2.298       .  S
Mg191       O207   2.238       .  S
O192       Mg208   2.271       .  S
H193        C198   1.081       .  S
O194       Mg202   2.150       .  S
O194        C197   1.237       .  S
H195        C197   1.081       .  S
H196        C199   1.081       .  S
O201       Mg208   2.303       .  S
C204       C1633   1.475       .  S
C204        O209   1.276       .  A
O205        C206   1.271       .  A
C206       C1093   1.480       .  S
C211        N212   1.361       .  A
C211        N216   1.352       .  A
C211       C1102   1.474       .  S
N212        C213   1.364       .  A
C213        N214   1.363       .  A
C213        C720   1.484       .  S
N214        C215   1.359       .  A
C215        N216   1.351       .  A
C215       C1033   1.473       .  S
O217       Mg219   2.147       .  S
O217       Mg225   2.151       .  S
O217        C252   1.237       .  S
C218        O231   1.236       .  S
C218        O255   1.270       .  A
C218        H257   1.081       .  S
Mg219       O248   2.148       .  S
Mg219       O263   2.299       .  S
Mg219       O259   2.265       .  S
Mg219       O230   2.299       .  S
O220       Mg262   2.153       .  S
O220       Mg245   2.145       .  S
O220        C241   1.238       .  S
O221        C252   1.271       .  A
O221       Mg245   2.301       .  S
C222       C1513   1.478       .  S
C222        O224   1.273       .  A
C222        O236   1.276       .  A
O223        C251   1.271       .  A
O223       Mg225   2.300       .  S
O224       Mg256   2.269       .  S
Mg225       O231   2.143       .  S
Mg225       O239   2.274       .  S
Mg225       O227   2.311       .  S
C226        C993   1.477       .  S
C226        O264   1.273       .  A
C226        O232   1.273       .  A
O227        C234   1.276       .  A
H228        C241   1.081       .  S
C229        O243   1.236       .  S
C229        O244   1.270       .  A
C229        H254   1.081       .  S
O230        C253   1.271       .  A
O231       Mg245   2.151       .  S
O232       Mg262   2.291       .  S
C233       C1542   1.480       .  S
C233        O246   1.272       .  A
C233        O238   1.276       .  A
C234       C1042   1.482       .  S
C234        O261   1.273       .  A
Mg235       O242   2.149       .  S
Mg235       O243   2.154       .  S
Mg235       O236   2.310       .  S
Mg235       O237   2.303       .  S
Mg235       O264   2.276       .  S
O237        C241   1.272       .  A
O238       Mg245   2.316       .  S
O239        C258   1.273       .  A
O240        C260   1.277       .  A
O240       Mg256   2.321       .  S
O242       Mg256   2.157       .  S
O242        C253   1.237       .  S
O243       Mg262   2.148       .  S
O244       Mg256   2.301       .  S
Mg245       O261   2.267       .  S
O246       Mg262   2.274       .  S
H247        C252   1.081       .  S
O248       Mg256   2.136       .  S
O248        C251   1.237       .  S
H249        C251   1.081       .  S
H250        C253   1.081       .  S
O255       Mg262   2.297       .  S
C258       C1582   1.486       .  S
C258        O263   1.274       .  A
O259        C260   1.271       .  A
C260       C1013   1.477       .  S
C265        N266   1.357       .  A
C265        N270   1.355       .  A
C265       C1022   1.475       .  S
N266        C267   1.360       .  A
C267        N268   1.364       .  A
C267        C687   1.483       .  S
N268        C269   1.363       .  A
C269        N270   1.358       .  A
C269       C1162   1.484       .  S
C271        N272   1.357       .  A
C271        N276   1.351       .  A
C271        C973   1.468       .  S
N272        C273   1.361       .  A
C273        N274   1.364   1_556  A
C273        C652   1.482       .  S
N274        C275   1.362       .  A
C275        N276   1.353   1_554  A
C275       C1262   1.480       .  S
O277       Mg279   2.145       .  S
O277       Mg285   2.146       .  S
O277        C312   1.236       .  S
C278        O291   1.236       .  S
C278        O315   1.269       .  A
C278        H317   1.081       .  S
Mg279       O308   2.155       .  S
Mg279       O323   2.326       .  S
Mg279       O319   2.265       .  S
Mg279       O290   2.301       .  S
O280       Mg322   2.154       .  S
O280       Mg305   2.143       .  S
O280        C301   1.237       .  S
O281        C312   1.271       .  A
O281       Mg305   2.301       .  S
C282       C1373   1.481       .  S
C282        O284   1.273       .  A
C282        O296   1.276       .  A
O283        C311   1.272       .  A
O283       Mg285   2.303       .  S
O284       Mg316   2.278       .  S
Mg285       O291   2.133       .  S
Mg285       O299   2.246       .  S
Mg285       O287   2.311       .  S
C286        C942   1.468       .  S
C286        O324   1.272       .  A
C286        O292   1.272       .  A
O287        C294   1.275       .  A
H288        C301   1.081       .  S
C289        O303   1.236       .  S
C289        O304   1.270       .  A
C289        H314   1.081       .  S
O290        C313   1.271       .  A
O291       Mg305   2.148       .  S
O292       Mg322   2.289       .  S
C293        C922   1.477       .  S
C293        O306   1.271       .  A
C293        O298   1.276       .  A
C294        C953   1.476       .  S
C294        O321   1.273       .  A
Mg295       O302   2.141       .  S
Mg295       O303   2.156       .  S
Mg295       O296   2.314       .  S
Mg295       O297   2.299       .  S
Mg295       O324   2.266       .  S
O297        C301   1.271       .  A
O298       Mg305   2.317       .  S
O299        C318   1.270       .  A
O300        C320   1.275       .  A
O300       Mg316   2.301       .  S
O302       Mg316   2.152       .  S
O302        C313   1.237       .  S
O303       Mg322   2.145       .  S
O304       Mg316   2.298       .  S
Mg305       O321   2.269       .  S
O306       Mg322   2.260       .  S
H307        C312   1.081       .  S
O308       Mg316   2.151       .  S
O308        C311   1.237       .  S
H309        C311   1.081       .  S
H310        C313   1.081       .  S
O315       Mg322   2.294       .  S
C318       C1433   1.474       .  S
C318        O323   1.277       .  A
O319        C320   1.272       .  A
C320        C982   1.475       .  S
C325        N326   1.351       .  A
C325        N330   1.360       .  A
C325        C962   1.474       .  S
N326        C327   1.352       .  A
C327        N328   1.360       .  A
C327        C902   1.477       .  S
N328        C329   1.362       .  A
C329        N330   1.363       .  A
C329        C722   1.483       .  S
O331       Mg333   2.133       .  S
O331       Mg339   2.148       .  S
O331        C366   1.237       .  S
C332        O345   1.236       .  S
C332        O369   1.269       .  A
C332        H371   1.081       .  S
Mg333       O362   2.155       .  S
Mg333       O377   2.306       .  S
Mg333       O373   2.254       .  S
Mg333       O344   2.296       .  S
O334       Mg376   2.156       .  S
O334       Mg359   2.136       .  S
O334        C355   1.236       .  S
O335        C366   1.270       .  A
O335       Mg359   2.296       .  S
C336       C1342   1.478       .  S
C336        O338   1.273       .  A
C336        O350   1.273       .  A
O337        C365   1.271       .  A
O337       Mg339   2.297       .  S
O338       Mg370   2.274       .  S
Mg339       O345   2.129       .  S
Mg339       O353   2.252       .  S
Mg339       O341   2.291       .  S
C340        C893   1.475       .  S
C340        O378   1.270       .  A
C340        O346   1.275       .  A
O341        C348   1.273       .  A
H342        C355   1.081       .  S
C343        O357   1.237       .  S
C343        O358   1.271       .  A
C343        H368   1.081       .  S
O344        C367   1.270       .  A
O345       Mg359   2.155       .  S
O346       Mg376   2.306       .  S
C347       C1653   1.470       .  S
C347        O360   1.272       .  A
C347        O352   1.276       .  A
C348        C882   1.474       .  S
C348        O375   1.273       .  A
Mg349       O356   2.133       .  S
Mg349       O357   2.146       .  S
Mg349       O350   2.288       .  S
Mg349       O351   2.294       .  S
Mg349       O378   2.252       .  S
O351        C355   1.270       .  A
O352       Mg359   2.309       .  S
O353        C372   1.270       .  A
O354        C374   1.275       .  A
O354       Mg370   2.306       .  S
O356       Mg370   2.150       .  S
O356        C367   1.236       .  S
O357       Mg376   2.134       .  S
O358       Mg370   2.299       .  S
Mg359       O375   2.270       .  S
O360       Mg376   2.254       .  S
H361        C366   1.081       .  S
O362       Mg370   2.142       .  S
O362        C365   1.237       .  S
H363        C365   1.081       .  S
H364        C367   1.081       .  S
O369       Mg376   2.291       .  S
C372       C1402   1.478       .  S
C372        O377   1.275       .  A
O373        C374   1.271       .  A
C374        C853   1.467       .  S
C379        N380   1.355       .  A
C379        N384   1.361       .  A
C379        C833   1.479       .  S
N380        C381   1.354       .  A
C381        N382   1.356       .  A
C381        C873   1.468       .  S
N382        C383   1.359       .  A
C383        N384   1.362       .  A
C383        C688   1.479       .  S
C385        N386   1.358       .  A
C385        N390   1.353       .  A
C385        C933   1.471       .  S
N386        C387   1.361       .  A
C387        N388   1.361       .  A
C387        C685   1.479       .  S
N388        C389   1.358       .  A
C389        N390   1.353       .  A
C389        C813   1.470       .  S
O391       Mg393   2.150       .  S
O391       Mg399   2.156       .  S
O391        C426   1.237       .  S
C392        O405   1.236       .  S
C392        O429   1.270       .  A
C392        H431   1.081       .  S
Mg393       O422   2.156       .  S
Mg393       O437   2.309       .  S
Mg393       O433   2.278       .  S
Mg393       O404   2.297       .  S
O394       Mg436   2.159       .  S
O394       Mg419   2.150       .  S
O394        C415   1.237       .  S
O395        C426   1.271       .  A
O395       Mg419   2.301       .  S
C396       C1613   1.472       .  S
C396        O398   1.270       .  A
C396        O410   1.276       .  A
O397        C425   1.270       .  A
O397       Mg399   2.296       .  S
O398       Mg430   2.255       .  S
Mg399       O405   2.137       .  S
Mg399       O413   2.250       .  S
Mg399       O401   2.308       .  S
C400        C822   1.476       .  S
C400        O438   1.271       .  A
C400        O406   1.276       .  A
O401        C408   1.275       .  A
H402        C415   1.081       .  S
C403        O417   1.236       .  S
C403        O418   1.271       .  A
C403        H428   1.081       .  S
O404        C427   1.270       .  A
O405       Mg419   2.148       .  S
O406       Mg436   2.313       .  S
C407       C1482   1.482       .  S
C407        O420   1.274       .  A
C407        O412   1.276       .  A
C408        C773   1.479       .  S
C408        O435   1.274       .  A
Mg409       O416   2.139       .  S
Mg409       O417   2.152       .  S
Mg409       O410   2.317       .  S
Mg409       O411   2.302       .  S
Mg409       O438   2.255       .  S
O411        C415   1.271       .  A
O412       Mg419   2.309       .  S
O413        C432   1.270       .  A
O414        C434   1.274       .  A
O414       Mg430   2.303       .  S
O416       Mg430   2.150       .  S
O416        C427   1.236       .  S
O417       Mg436   2.150       .  S
O418       Mg430   2.301       .  S
Mg419       O435   2.281       .  S
O420       Mg436   2.275       .  S
H421        C426   1.081       .  S
O422       Mg430   2.136       .  S
O422        C425   1.236       .  S
H423        C425   1.081       .  S
H424        C427   1.081       .  S
O429       Mg436   2.296       .  S
C432       C1422   1.468       .  S
C432        O437   1.275       .  A
O433        C434   1.273       .  A
C434        C802   1.476       .  S
C439        N440   1.360       .  A
C439        N444   1.353       .  A
C439        C793   1.474       .  S
N440        C441   1.363       .  A
C441        N442   1.363       .  A
C441        C719   1.486       .  S
N442        C443   1.361       .  A
C443        N444   1.354       .  A
C443        C762   1.479       .  S
O445       Mg447   2.150       .  S
O445       Mg453   2.147       .  S
O445        C480   1.236       .  S
C446        O459   1.236       .  S
C446        O483   1.269       .  A
C446        H485   1.081       .  S
Mg447       O476   2.154       .  S
Mg447       O491   2.315       .  S
Mg447       O487   2.285       .  S
Mg447       O458   2.300       .  S
O448       Mg490   2.161       .  S
O448       Mg473   2.145       .  S
O448        C469   1.237       .  S
O449        C480   1.271       .  A
O449       Mg473   2.301       .  S
C450        C842   1.479       .  S
C450        O452   1.273       .  A
C450        O464   1.277       .  A
O451        C479   1.272       .  A
O451       Mg453   2.303       .  S
O452       Mg484   2.273       .  S
Mg453       O459   2.130       .  S
Mg453       O467   2.249       .  S
Mg453       O455   2.310       .  S
C454       C1462   1.472       .  S
C454        O492   1.273       .  A
C454        O460   1.272       .  A
O455        C462   1.275       .  A
H456        C469   1.081       .  S
C457        O471   1.236       .  S
C457        O472   1.269       .  A
C457        H482   1.081       .  S
O458        C481   1.271       .  A
O459       Mg473   2.150       .  S
O460       Mg490   2.283       .  S
C461        C733   1.469       .  S
C461        O474   1.269       .  A
C461        O466   1.276       .  A
C462       C1362   1.478       .  S
C462        O489   1.274       .  A
Mg463       O470   2.141       .  S
Mg463       O471   2.152       .  S
Mg463       O464   2.323       .  S
Mg463       O465   2.299       .  S
Mg463       O492   2.275       .  S
O465        C469   1.271       .  A
O466       Mg473   2.309       .  S
O467        C486   1.270       .  A
O468        C488   1.275       .  A
O468       Mg484   2.301       .  S
O470       Mg484   2.152       .  S
O470        C481   1.237       .  S
O471       Mg490   2.135       .  S
O472       Mg484   2.295       .  S
Mg473       O489   2.282       .  S
O474       Mg490   2.241       .  S
H475        C480   1.081       .  S
O476       Mg484   2.147       .  S
O476        C479   1.238       .  S
H477        C479   1.081       .  S
H478        C481   1.081       .  S
O483       Mg490   2.291       .  S
C486        C753   1.481       .  S
C486        O491   1.277       .  A
O487        C488   1.274       .  A
C488       C1602   1.486       .  S
C493        N494   1.359       .  A
C493        N498   1.350       .  A
C493        C862   1.466       .  S
N494        C495   1.363       .  A
C495        N496   1.361   1_556  A
C495        C651   1.480       .  S
N496        C497   1.358       .  A
C497        N498   1.351   1_554  A
C497       C1142   1.475       .  S
C499        N500   1.361       .  A
C499        N504   1.354   1_556  A
C499        C782   1.481       .  S
N500        C501   1.363   1_556  A
C501        N502   1.362       .  A
C501        C653   1.486       .  S
N502        C503   1.361       .  A
C503        N504   1.355       .  A
C503       C1082   1.486       .  S
C505        N506   1.356       .  A
C505        N510   1.353       .  A
C505        C742   1.464       .  S
N506        C507   1.359       .  A
C507        N508   1.361   1_556  A
C507        C654   1.479       .  S
N508        C509   1.360       .  A
C509        N510   1.354   1_554  A
C509       C1002   1.482       .  S
C511        N512   1.356       .  A
C511        N516   1.357       .  A
C511       C1213   1.474       .  S
N512        C513   1.358       .  A
C513        N514   1.361       .  A
C513       C1062   1.491       .  S
N514        C515   1.362   1_545  A
C515        N516   1.360   1_565  A
C515        C583   1.481       .  S
C517        N518   1.362       .  A
C517        N522   1.352       .  A
C517       C1233   1.477       .  S
N518        C519   1.363       .  A
C519        N520   1.359       .  A
C519        C620   1.479       .  S
N520        C521   1.356       .  A
C521        N522   1.351       .  A
C521       C1122   1.467       .  S
C523        N524   1.354       .  A
C523        N528   1.357       .  A
C523       C1202   1.471       .  S
N524        C525   1.356       .  A
C525        N526   1.362       .  A
C525        C913   1.483       .  S
N526        C527   1.363   1_545  A
C527        N528   1.360   1_565  A
C527        C550   1.481       .  S
N529        C534   1.355       .  A
N529        C533   1.356       .  A
N529        H561   1.025       .  S
N530        C537   1.353       .  A
N530        C538   1.353       .  A
N531        C536   1.356       .  A
N531        C535   1.356       .  A
N531        H562   1.022       .  S
N532        C539   1.353       .  A
N532        C540   1.354       .  A
C533        C541   1.387       .  A
C533        C549   1.420       .  A
C534        C550   1.420       .  A
C534        C542   1.388       .  A
C535        C543   1.388   1_455  A
C535        C552   1.423       .  A
C536        C551   1.423       .  A
C536        C544   1.388   1_455  A
C537        C549   1.417       .  A
C537        C545   1.387       .  A
C538        C552   1.418       .  A
C538        C546   1.387       .  A
C539        C547   1.387   1_565  A
C539        C550   1.418       .  A
C540        C548   1.387   1_565  A
C540        C551   1.420       .  A
C541        H553   1.082       .  S
C541        C542   1.377       .  A
C542        H554   1.082       .  S
C543        H555   1.082       .  S
C543        C544   1.378       .  A
C544        H556   1.082       .  S
C545        H557   1.083       .  S
C545        C546   1.373       .  A
C546        H558   1.082       .  S
C547        H559   1.082       .  S
C547        C548   1.374       .  A
C548        H560   1.082       .  S
N563        C568   1.355       .  A
N563        C567   1.353   1_556  A
N563        H595   1.028       .  S
N564        C571   1.354       .  A
N564        C572   1.355       .  A
N565        C570   1.354       .  A
N565        C569   1.356   1_556  A
N565        H596   1.030       .  S
N566        C573   1.354       .  A
N566        C574   1.352       .  A
C567        C575   1.389   1_565  A
C567        C583   1.422       .  A
C568        C584   1.421       .  A
C568        C576   1.388   1_565  A
C569        C577   1.387       .  A
C569        C586   1.422       .  A
C570        C585   1.422       .  A
C570        C578   1.388       .  A
C571        C583   1.422       .  A
C571        C579   1.388       .  A
C572        C586   1.420       .  A
C572        C580   1.386       .  A
C573        C581   1.387       .  A
C573        C584   1.419       .  A
C574        C582   1.388       .  A
C574        C585   1.419       .  A
C575        H587   1.082       .  S
C575        C576   1.377   1_554  A
C576        H588   1.082       .  S
C577        H589   1.082       .  S
C577        C578   1.377   1_554  A
C578        H590   1.082       .  S
C579        H591   1.082       .  S
C579        C580   1.375       .  A
C580        H592   1.082       .  S
C581        H593   1.082       .  S
C581        C582   1.374       .  A
C582        H594   1.082       .  S
N597        C602   1.354       .  A
N597        C601   1.355       .  A
N597        H629   1.032       .  S
N598        C605   1.353   1_554  A
N598        C606   1.353       .  A
N599        C604   1.354       .  A
N599        C603   1.353       .  A
N599        H630   1.032       .  S
N600        C607   1.352   1_554  A
N600        C608   1.352       .  A
C601        C609   1.388       .  A
C601        C617   1.420       .  A
C602        C618   1.420       .  A
C602        C610   1.388       .  A
C603        C611   1.388       .  A
C603        C620   1.419       .  A
C604        C619   1.418       .  A
C604        C612   1.387       .  A
C605        C617   1.418       .  A
C605        C613   1.387       .  A
C606        C620   1.418       .  A
C606        C614   1.387       .  A
C607        C615   1.387   1_455  A
C607        C618   1.416       .  A
C608        C616   1.387   1_455  A
C608        C619   1.416       .  A
C609        H621   1.082       .  S
C609        C610   1.376       .  A
C610        H622   1.082       .  S
C611        H623   1.082       .  S
C611        C612   1.376       .  A
C612        H624   1.083       .  S
C613        H625   1.082       .  S
C613        C614   1.374   1_556  A
C614        H626   1.083       .  S
C615        H627   1.082       .  S
C615        C616   1.373   1_556  A
C616        H628   1.083       .  S
N631        C636   1.354       .  A
N631        C635   1.355       .  A
N631        H663   1.031   1_556  S
N632        C639   1.352       .  A
N632        C640   1.352   1_556  A
N633        C638   1.355   1_554  A
N633        C637   1.354   1_554  A
N633        H664   1.030       .  S
N634        C641   1.354       .  A
N634        C642   1.354       .  A
C635        C643   1.387       .  A
C635        C651   1.419       .  A
C636        C652   1.421       .  A
C636        C644   1.388       .  A
C637        C645   1.389       .  A
C637        C654   1.422       .  A
C638        C653   1.422   1_556  A
C638        C646   1.387       .  A
C639        C651   1.417       .  A
C639        C647   1.387   1_556  A
C640        C654   1.418   1_554  A
C640        C648   1.388       .  A
C641        C649   1.387       .  A
C641        C652   1.420   1_554  A
C642        C650   1.387       .  A
C642        C653   1.420       .  A
C643        H655   1.082       .  S
C643        C644   1.376       .  A
C644        H656   1.082       .  S
C645        H657   1.082       .  S
C645        C646   1.377       .  A
C646        H658   1.082       .  S
C647        H659   1.082       .  S
C647        C648   1.373       .  A
C648        H660   1.082       .  S
C649        H661   1.082       .  S
C649        C650   1.374       .  A
C650        H662   1.083       .  S
N665        C670   1.352       .  A
N665        C669   1.354       .  A
N665        H697   1.034       .  S
N666        C673   1.352       .  A
N666        C674   1.351       .  A
N667        C672   1.355       .  A
N667        C671   1.354       .  A
N667        H698   1.033       .  S
N668        C675   1.352       .  A
N668        C676   1.353       .  A
C669        C677   1.388       .  A
C669        C685   1.417       .  A
C670        C686   1.417       .  A
C670        C678   1.388       .  A
C671        C679   1.388       .  A
C671        C688   1.421       .  A
C672        C687   1.420       .  A
C672        C680   1.387       .  A
C673        C685   1.414       .  A
C673        C681   1.386       .  A
C674        C688   1.416       .  A
C674        C682   1.388       .  A
C675        C683   1.387       .  A
C675        C686   1.416       .  A
C676        C684   1.387       .  A
C676        C687   1.417       .  A
C677        H689   1.082       .  S
C677        C678   1.376       .  A
C678        H690   1.082       .  S
C679        H691   1.082       .  S
C679        C680   1.378       .  A
C680        H692   1.082       .  S
C681        H693   1.082       .  S
C681        C682   1.373       .  A
C682        H694   1.082       .  S
C683        H695   1.082       .  S
C683        C684   1.374       .  A
C684        H696   1.083       .  S
N699        C704   1.355       .  A
N699        C703   1.356       .  A
N699        H731   1.032       .  S
N700        C707   1.354       .  A
N700        C708   1.353       .  A
N701        C706   1.355       .  A
N701        C705   1.355       .  A
N701        H732   1.031       .  S
N702        C709   1.353       .  A
N702        C710   1.354       .  A
C703        C711   1.388       .  A
C703        C719   1.422       .  A
C704        C720   1.422       .  A
C704        C712   1.388       .  A
C705        C713   1.388       .  A
C705        C722   1.422       .  A
C706        C721   1.423       .  A
C706        C714   1.388       .  A
C707        C719   1.419       .  A
C707        C715   1.387       .  A
C708        C722   1.420       .  A
C708        C716   1.388       .  A
C709        C717   1.388       .  A
C709        C720   1.419       .  A
C710        C718   1.387       .  A
C710        C721   1.419       .  A
C711        H723   1.082       .  S
C711        C712   1.378       .  A
C712        H724   1.082       .  S
C713        H725   1.082       .  S
C713        C714   1.378       .  A
C714        H726   1.082       .  S
C715        H727   1.082       .  S
C715        C716   1.373       .  A
C716        H728   1.082       .  S
C717        H729   1.082       .  S
C717        C718   1.372       .  A
C718        H730   1.082       .  S
C733        C734   1.410       .  A
C733        C738   1.409       .  A
C734        C735   1.406       .  A
C734       Br746   1.929       .  S
C735        C736   1.407       .  A
C735       Br750   1.929       .  S
C736        C739   1.477       .  S
C736        C737   1.408       .  A
C737        C738   1.404       .  A
C737       Br745   1.931       .  S
C738       Br749   1.931       .  S
C739        C740   1.409       .  A
C739        C744   1.409       .  A
C740        C741   1.404       .  A
C740       Br751   1.930       .  S
C741        C742   1.407       .  A
C741       Br747   1.930       .  S
C742        C743   1.407       .  A
C743        C744   1.406       .  A
C743       Br752   1.929       .  S
C744       Br748   1.929       .  S
C753        C754   1.416       .  A
C753        C758   1.413       .  A
C754        C755   1.409       .  A
C754       Br766   1.932       .  S
C755        C756   1.407       .  A
C755       Br770   1.930       .  S
C756        C759   1.484       .  S
C756        C757   1.408       .  A
C757        C758   1.406       .  A
C757       Br765   1.931       .  S
C758       Br769   1.933       .  S
C759        C760   1.409       .  A
C759        C764   1.408       .  A
C760        C761   1.410       .  A
C760       Br771   1.929       .  S
C761        C762   1.412       .  A
C761       Br767   1.929       .  S
C762        C763   1.412       .  A
C763        C764   1.406       .  A
C763       Br772   1.931       .  S
C764       Br768   1.932       .  S
C773        C774   1.410       .  A
C773        C778   1.410       .  A
C774        C775   1.411       .  A
C774       Br786   1.929       .  S
C775        C776   1.410       .  A
C775       Br790   1.928       .  S
C776        C779   1.489       .  S
C776        C777   1.410       .  A
C777        C778   1.408       .  A
C777       Br785   1.930       .  S
C778       Br789   1.929       .  S
C779        C780   1.410       .  A
C779        C784   1.409       .  A
C780        C781   1.410       .  A
C780       Br791   1.929       .  S
C781        C782   1.411       .  A
C781       Br787   1.929       .  S
C782        C783   1.413       .  A
C783        C784   1.409       .  A
C783       Br792   1.931       .  S
C784       Br788   1.930       .  S
C793        C794   1.409       .  A
C793        C798   1.408       .  A
C794        C795   1.408       .  A
C794       Br806   1.930       .  S
C795        C796   1.410   1_565  A
C795       Br810   1.929   1_565  S
C796        C799   1.488       .  S
C796        C797   1.411       .  A
C797        C798   1.409   1_545  A
C797       Br805   1.930       .  S
C798       Br809   1.929       .  S
C799        C800   1.410       .  A
C799        C804   1.411       .  A
C800        C801   1.407       .  A
C800       Br811   1.930   1_545  S
C801        C802   1.409       .  A
C801       Br807   1.931       .  S
C802        C803   1.409       .  A
C803        C804   1.410       .  A
C803       Br812   1.927       .  S
C804       Br808   1.928       .  S
C813        C814   1.408       .  A
C813        C818   1.408       .  A
C814        C815   1.407   1_455  A
C814       Br826   1.928       .  S
C815        C816   1.410       .  A
C815       Br830   1.929       .  S
C816        C819   1.483       .  S
C816        C817   1.409       .  A
C817        C818   1.405   1_655  A
C817       Br825   1.930       .  S
C818       Br829   1.929       .  S
C819        C820   1.409       .  A
C819        C824   1.408       .  A
C820        C821   1.407       .  A
C820       Br831   1.931   1_655  S
C821        C822   1.411       .  A
C821       Br827   1.931       .  S
C822        C823   1.411       .  A
C823        C824   1.406       .  A
C823       Br832   1.930       .  S
C824       Br828   1.930       .  S
C833        C834   1.411       .  A
C833        C838   1.411       .  A
C834        C835   1.410   1_455  A
C834       Br846   1.930       .  S
C835        C836   1.410       .  A
C835       Br850   1.928       .  S
C836        C839   1.489       .  S
C836        C837   1.410       .  A
C837        C838   1.408   1_655  A
C837       Br845   1.930       .  S
C838       Br849   1.931       .  S
C839        C840   1.411       .  A
C839        C844   1.410       .  A
C840        C841   1.409       .  A
C840       Br851   1.930   1_655  S
C841        C842   1.410       .  A
C841       Br847   1.929       .  S
C842        C843   1.410       .  A
C843        C844   1.410       .  A
C843       Br852   1.928       .  S
C844       Br848   1.928       .  S
C853        C854   1.407       .  A
C853        C858   1.407       .  A
C854        C855   1.405       .  A
C854       Br866   1.929       .  S
C855        C856   1.408       .  A
C855       Br870   1.929       .  S
C856        C859   1.481       .  S
C856        C857   1.411       .  A
C857        C858   1.407       .  A
C857       Br865   1.930       .  S
C858       Br869   1.930       .  S
C859        C860   1.409       .  A
C859        C864   1.409       .  A
C860        C861   1.406       .  A
C860       Br871   1.929       .  S
C861        C862   1.407       .  A
C861       Br867   1.930       .  S
C862        C863   1.407       .  A
C863        C864   1.406       .  A
C863       Br872   1.929       .  S
C864       Br868   1.930       .  S
C873        C874   1.407       .  A
C873        C878   1.408       .  A
C874        C875   1.404       .  A
C874       Br886   1.930       .  S
C875        C876   1.409       .  A
C875       Br890   1.930       .  S
C876        C879   1.481       .  S
C876        C877   1.410       .  A
C877        C878   1.408       .  A
C877       Br885   1.928       .  S
C878       Br889   1.928       .  S
C879        C880   1.408       .  A
C879        C884   1.409       .  A
C880        C881   1.408       .  A
C880       Br891   1.928       .  S
C881        C882   1.411       .  A
C881       Br887   1.929       .  S
C882        C883   1.410       .  A
C883        C884   1.405       .  A
C883       Br892   1.932       .  S
C884       Br888   1.931       .  S
C893        C894   1.412       .  A
C893        C898   1.411       .  A
C894        C895   1.406       .  A
C894       Br906   1.933       .  S
C895        C896   1.409       .  A
C895       Br910   1.931       .  S
C896        C899   1.482       .  S
C896        C897   1.408       .  A
C897        C898   1.407       .  A
C897       Br905   1.929       .  S
C898       Br909   1.930       .  S
C899        C900   1.407       .  A
C899        C904   1.409       .  A
C900        C901   1.404       .  A
C900       Br911   1.932       .  S
C901        C902   1.413       .  A
C901       Br907   1.933       .  S
C902        C903   1.412       .  A
C903        C904   1.409       .  A
C903       Br912   1.930       .  S
C904       Br908   1.929       .  S
C913        C914   1.412       .  A
C913        C918   1.413       .  A
C914        C915   1.411       .  A
C914       Br926   1.929       .  S
C915        C916   1.410       .  A
C915       Br930   1.928       .  S
C916        C919   1.487       .  S
C916        C917   1.408       .  A
C917        C918   1.406       .  A
C917       Br925   1.931       .  S
C918       Br929   1.929       .  S
C919        C920   1.410       .  A
C919        C924   1.410       .  A
C920        C921   1.408       .  A
C920       Br931   1.930       .  S
C921        C922   1.411       .  A
C921       Br927   1.932       .  S
C922        C923   1.409       .  A
C923        C924   1.409       .  A
C923       Br932   1.928       .  S
C924       Br928   1.928       .  S
C933        C934   1.408       .  A
C933        C938   1.409       .  A
C934        C935   1.407       .  A
C934       Br946   1.929       .  S
C935        C936   1.409       .  A
C935       Br950   1.929       .  S
C936        C939   1.481       .  S
C936        C937   1.408       .  A
C937        C938   1.406       .  A
C937       Br945   1.929       .  S
C938       Br949   1.928       .  S
C939        C940   1.408       .  A
C939        C944   1.410       .  A
C940        C941   1.407       .  A
C940       Br951   1.927       .  S
C941        C942   1.407       .  A
C941       Br947   1.928       .  S
C942        C943   1.407       .  A
C943        C944   1.405       .  A
C943       Br952   1.931       .  S
C944       Br948   1.930       .  S
C953        C954   1.410       .  A
C953        C958   1.410       .  A
C954        C955   1.409       .  A
C954       Br966   1.928       .  S
C955        C956   1.410       .  A
C955       Br970   1.929       .  S
C956        C959   1.486       .  S
C956        C957   1.410       .  A
C957        C958   1.407       .  A
C957       Br965   1.930   1_545  S
C958       Br969   1.931       .  S
C959        C960   1.411       .  A
C959        C964   1.409   1_545  A
C960        C961   1.408   1_545  A
C960       Br971   1.929       .  S
C961        C962   1.409       .  A
C961       Br967   1.930       .  S
C962        C963   1.411       .  A
C963        C964   1.407       .  A
C963       Br972   1.931       .  S
C964       Br968   1.930   1_565  S
C973        C974   1.407       .  A
C973        C978   1.409       .  A
C974        C975   1.404       .  A
C974       Br986   1.931       .  S
C975        C976   1.409       .  A
C975       Br990   1.929       .  S
C976        C979   1.482       .  S
C976        C977   1.410       .  A
C977        C978   1.408       .  A
C977       Br985   1.929       .  S
C978       Br989   1.929       .  S
C979        C980   1.408       .  A
C979        C984   1.409       .  A
C980        C981   1.408       .  A
C980       Br991   1.929       .  S
C981        C982   1.411       .  A
C981       Br987   1.929       .  S
C982        C983   1.411       .  A
C983        C984   1.406       .  A
C983       Br992   1.931       .  S
C984       Br988   1.931       .  S
C993        C994   1.412       .  A
C993        C998   1.411       .  A
C994        C995   1.408       .  A
C994      Br1006   1.930       .  S
C995        C996   1.408       .  A
C995      Br1010   1.929       .  S
C996        C999   1.484       .  S
C996        C997   1.409       .  A
C997        C998   1.407       .  A
C997      Br1005   1.931       .  S
C998      Br1009   1.931       .  S
C999       C1000   1.407       .  A
C999       C1004   1.407       .  A
C1000      C1001   1.408       .  A
C1000     Br1011   1.929       .  S
C1001      C1002   1.414       .  A
C1001     Br1007   1.931       .  S
C1002      C1003   1.416       .  A
C1003      C1004   1.407       .  A
C1003     Br1012   1.933       .  S
C1004     Br1008   1.931       .  S
C1013      C1014   1.409       .  A
C1013      C1018   1.409       .  A
C1014      C1015   1.407       .  A
C1014     Br1026   1.931       .  S
C1015      C1016   1.410       .  A
C1015     Br1030   1.930   1_655  S
C1016      C1019   1.488       .  S
C1016      C1017   1.411       .  A
C1017      C1018   1.412       .  A
C1017     Br1025   1.927       .  S
C1018     Br1029   1.927       .  S
C1019      C1020   1.410       .  A
C1019      C1024   1.411       .  A
C1020      C1021   1.408   1_655  A
C1020     Br1031   1.930       .  S
C1021      C1022   1.409       .  A
C1021     Br1027   1.928       .  S
C1022      C1023   1.408       .  A
C1023      C1024   1.410   1_455  A
C1023     Br1032   1.929       .  S
C1024     Br1028   1.927       .  S
C1033      C1034   1.410       .  A
C1033      C1038   1.409       .  A
C1034      C1035   1.406       .  A
C1034     Br1046   1.931       .  S
C1035      C1036   1.409       .  A
C1035     Br1050   1.930       .  S
C1036      C1039   1.485       .  S
C1036      C1037   1.410       .  A
C1037      C1038   1.409       .  A
C1037     Br1045   1.928       .  S
C1038     Br1049   1.929       .  S
C1039      C1040   1.407       .  A
C1039      C1044   1.409       .  A
C1040      C1041   1.408       .  A
C1040     Br1051   1.930       .  S
C1041      C1042   1.413       .  A
C1041     Br1047   1.930       .  S
C1042      C1043   1.414       .  A
C1043      C1044   1.408       .  A
C1043     Br1052   1.932       .  S
C1044     Br1048   1.931       .  S
C1053      C1054   1.414       .  A
C1053      C1058   1.412       .  A
C1054      C1055   1.410       .  A
C1054     Br1066   1.930       .  S
C1055      C1056   1.409       .  A
C1055     Br1070   1.929       .  S
C1056      C1059   1.487       .  S
C1056      C1057   1.409       .  A
C1057      C1058   1.408       .  A
C1057     Br1065   1.931       .  S
C1058     Br1069   1.931       .  S
C1059      C1060   1.406       .  A
C1059      C1064   1.408       .  A
C1060      C1061   1.407       .  A
C1060     Br1071   1.932       .  S
C1061      C1062   1.418       .  A
C1061     Br1067   1.930       .  S
C1062      C1063   1.418       .  A
C1063      C1064   1.412       .  A
C1063     Br1072   1.932   1_545  S
C1064     Br1068   1.929       .  S
C1073      C1074   1.414       .  A
C1073      C1078   1.412       .  A
C1074      C1075   1.411       .  A
C1074     Br1086   1.930       .  S
C1075      C1076   1.409       .  A
C1075     Br1090   1.929       .  S
C1076      C1079   1.488       .  S
C1076      C1077   1.409       .  A
C1077      C1078   1.408       .  A
C1077     Br1085   1.931       .  S
C1078     Br1089   1.930       .  S
C1079      C1080   1.409       .  A
C1079      C1084   1.408       .  A
C1080      C1081   1.411       .  A
C1080     Br1091   1.929       .  S
C1081      C1082   1.415       .  A
C1081     Br1087   1.931       .  S
C1082      C1083   1.416       .  A
C1083      C1084   1.407       .  A
C1083     Br1092   1.933       .  S
C1084     Br1088   1.931       .  S
C1093      C1094   1.412       .  A
C1093      C1098   1.414       .  A
C1094      C1095   1.408       .  A
C1094     Br1106   1.931       .  S
C1095      C1096   1.410       .  A
C1095     Br1110   1.931   1_545  S
C1096      C1099   1.484       .  S
C1096      C1097   1.407       .  A
C1097      C1098   1.407       .  A
C1097     Br1105   1.929       .  S
C1098     Br1109   1.931       .  S
C1099      C1100   1.410       .  A
C1099      C1104   1.408       .  A
C1100      C1101   1.409   1_545  A
C1100     Br1111   1.929       .  S
C1101      C1102   1.410       .  A
C1101     Br1107   1.929       .  S
C1102      C1103   1.410       .  A
C1103      C1104   1.405   1_565  A
C1103     Br1112   1.931       .  S
C1104     Br1108   1.930       .  S
C1113      C1114   1.412       .  A
C1113      C1118   1.412       .  A
C1114      C1115   1.405       .  A
C1114     Br1126   1.932       .  S
C1115      C1116   1.408       .  A
C1115     Br1130   1.932       .  S
C1116      C1119   1.479       .  S
C1116      C1117   1.406       .  A
C1117      C1118   1.407       .  A
C1117     Br1125   1.929       .  S
C1118     Br1129   1.929       .  S
C1119      C1120   1.408       .  A
C1119      C1124   1.409       .  A
C1120      C1121   1.403       .  A
C1120     Br1131   1.930       .  S
C1121      C1122   1.409       .  A
C1121     Br1127   1.931       .  S
C1122      C1123   1.408       .  A
C1123      C1124   1.406       .  A
C1123     Br1132   1.930       .  S
C1124     Br1128   1.929       .  S
C1133      C1134   1.409       .  A
C1133      C1138   1.411       .  A
C1134      C1135   1.406       .  A
C1134     Br1146   1.929       .  S
C1135      C1136   1.408       .  A
C1135     Br1150   1.929       .  S
C1136      C1139   1.478       .  S
C1136      C1137   1.408       .  A
C1137      C1138   1.404       .  A
C1137     Br1145   1.931       .  S
C1138     Br1149   1.932       .  S
C1139      C1140   1.408       .  A
C1139      C1144   1.406       .  A
C1140      C1141   1.407       .  A
C1140     Br1151   1.929       .  S
C1141      C1142   1.411       .  A
C1141     Br1147   1.930       .  S
C1142      C1143   1.414       .  A
C1143      C1144   1.404       .  A
C1143     Br1152   1.933       .  S
C1144     Br1148   1.932       .  S
C1153      C1154   1.416       .  A
C1153      C1158   1.416       .  A
C1154      C1155   1.410       .  A
C1154     Br1166   1.932       .  S
C1155      C1156   1.408       .  A
C1155     Br1170   1.930       .  S
C1156      C1159   1.489       .  S
C1156      C1157   1.408       .  A
C1157      C1158   1.409       .  A
C1157     Br1165   1.931       .  S
C1158     Br1169   1.934       .  S
C1159      C1160   1.408       .  A
C1159      C1164   1.410       .  A
C1160      C1161   1.406       .  A
C1160     Br1171   1.931       .  S
C1161      C1162   1.412       .  A
C1161     Br1167   1.929       .  S
C1162      C1163   1.413       .  A
C1163      C1164   1.413       .  A
C1163     Br1172   1.928       .  S
C1164     Br1168   1.929       .  S
C1173      C1174   1.416       .  A
C1173      C1178   1.417       .  A
C1174      C1175   1.410       .  A
C1174     Br1186   1.930       .  S
C1175      C1176   1.408       .  A
C1175     Br1190   1.930       .  S
C1176      C1179   1.484       .  S
C1176      C1177   1.406       .  A
C1177      C1178   1.406       .  A
C1177     Br1185   1.932       .  S
C1178     Br1189   1.933       .  S
C1179      C1180   1.409       .  A
C1179      C1184   1.410       .  A
C1180      C1181   1.408       .  A
C1180     Br1191   1.928       .  S
C1181      C1182   1.410       .  A
C1181     Br1187   1.930       .  S
C1182      C1183   1.409       .  A
C1183      C1184   1.405       .  A
C1183     Br1192   1.932       .  S
C1184     Br1188   1.930       .  S
C1193      C1194   1.407       .  A
C1193      C1198   1.409       .  A
C1194      C1195   1.406       .  A
C1194     Br1206   1.931       .  S
C1195      C1196   1.412       .  A
C1195     Br1210   1.931       .  S
C1196      C1199   1.486       .  S
C1196      C1197   1.411       .  A
C1197      C1198   1.408       .  A
C1197     Br1205   1.929       .  S
C1198     Br1209   1.929       .  S
C1199      C1200   1.411       .  A
C1199      C1204   1.411       .  A
C1200      C1201   1.407       .  A
C1200     Br1211   1.930       .  S
C1201      C1202   1.407       .  A
C1201     Br1207   1.928   1_545  S
C1202      C1203   1.407       .  A
C1203      C1204   1.407       .  A
C1203     Br1212   1.929       .  S
C1204     Br1208   1.930       .  S
C1213      C1214   1.408       .  A
C1213      C1218   1.408       .  A
C1214      C1215   1.407       .  A
C1214     Br1226   1.928       .  S
C1215      C1216   1.409       .  A
C1215     Br1230   1.929       .  S
C1216      C1219   1.487       .  S
C1216      C1217   1.411       .  A
C1217      C1218   1.409       .  A
C1217     Br1225   1.928       .  S
C1218     Br1229   1.928   1_545  S
C1219      C1220   1.411       .  A
C1219      C1224   1.410       .  A
C1220      C1221   1.407       .  A
C1220     Br1231   1.931       .  S
C1221      C1222   1.408       .  A
C1221     Br1227   1.929       .  S
C1222      C1223   1.409       .  A
C1223      C1224   1.410       .  A
C1223     Br1232   1.928       .  S
C1224     Br1228   1.927       .  S
C1233      C1234   1.410       .  A
C1233      C1238   1.414       .  A
C1234      C1235   1.408       .  A
C1234     Br1246   1.930       .  S
C1235      C1236   1.409       .  A
C1235     Br1250   1.929       .  S
C1236      C1239   1.484       .  S
C1236      C1237   1.408       .  A
C1237      C1238   1.407       .  A
C1237     Br1245   1.930       .  S
C1238     Br1249   1.933       .  S
C1239      C1240   1.408       .  A
C1239      C1244   1.410       .  A
C1240      C1241   1.408       .  A
C1240     Br1251   1.929       .  S
C1241      C1242   1.411       .  A
C1241     Br1247   1.930       .  S
C1242      C1243   1.410       .  A
C1243      C1244   1.407       .  A
C1243     Br1252   1.931       .  S
C1244     Br1248   1.930       .  S
C1253      C1254   1.409       .  A
C1253      C1258   1.410       .  A
C1254      C1255   1.407       .  A
C1254     Br1266   1.929       .  S
C1255      C1256   1.409       .  A
C1255     Br1270   1.928       .  S
C1256      C1259   1.483       .  S
C1256      C1257   1.409       .  A
C1257      C1258   1.406       .  A
C1257     Br1265   1.930       .  S
C1258     Br1269   1.932       .  S
C1259      C1260   1.406       .  A
C1259      C1264   1.409       .  A
C1260      C1261   1.404       .  A
C1260     Br1271   1.932       .  S
C1261      C1262   1.415       .  A
C1261     Br1267   1.934       .  S
C1262      C1263   1.413       .  A
C1263      C1264   1.410       .  A
C1263     Br1272   1.929       .  S
C1264     Br1268   1.929       .  S
C1273      C1274   1.416       .  A
C1273      C1278   1.416       .  A
C1274      C1275   1.407       .  A
C1274     Br1286   1.933       .  S
C1275      C1276   1.408       .  A
C1275     Br1290   1.932       .  S
C1276      C1279   1.486       .  S
C1276      C1277   1.408       .  A
C1277      C1278   1.410       .  A
C1277     Br1285   1.929       .  S
C1278     Br1289   1.931       .  S
C1279      C1280   1.409   1_545  A
C1279      C1284   1.410       .  A
C1280      C1281   1.406       .  A
C1280     Br1291   1.931   1_565  S
C1281      C1282   1.411       .  A
C1281     Br1287   1.931       .  S
C1282      C1283   1.412       .  A
C1283      C1284   1.411   1_565  A
C1283     Br1292   1.930       .  S
C1284     Br1288   1.928       .  S
C1293      C1294   1.413       .  A
C1293      C1298   1.415       .  A
C1294      C1295   1.403   1_455  A
C1294     Br1306   1.925       .  S
C1295      C1296   1.405       .  A
C1295     Br1310   1.933       .  S
C1296      C1299   1.480       .  S
C1296      C1297   1.408       .  A
C1297      C1298   1.410   1_655  A
C1297     Br1305   1.929       .  S
C1298     Br1309   1.930       .  S
C1299      C1300   1.409       .  A
C1299      C1304   1.409       .  A
C1300      C1301   1.404       .  A
C1300     Br1311   1.931       .  S
C1301      C1302   1.410       .  A
C1301     Br1307   1.932       .  S
C1302      C1303   1.409       .  A
C1303      C1304   1.407       .  A
C1303     Br1312   1.929       .  S
C1304     Br1308   1.928       .  S
C1313      C1314   1.409       .  A
C1313      C1318   1.408       .  A
C1314      C1315   1.406       .  A
C1314     Br1326   1.930       .  S
C1315      C1316   1.409       .  A
C1315     Br1330   1.930       .  S
C1316      C1319   1.483       .  S
C1316      C1317   1.410       .  A
C1317      C1318   1.409       .  A
C1317     Br1325   1.928       .  S
C1318     Br1329   1.927       .  S
C1319      C1320   1.410       .  A
C1319      C1324   1.408       .  A
C1320      C1321   1.408       .  A
C1320     Br1331   1.928       .  S
C1321      C1322   1.409       .  A
C1321     Br1327   1.929       .  S
C1322      C1323   1.408       .  A
C1323      C1324   1.405       .  A
C1323     Br1332   1.926       .  S
C1324     Br1328   1.930       .  S
C1333      C1334   1.409       .  A
C1333      C1338   1.410       .  A
C1334      C1335   1.406       .  A
C1334     Br1346   1.930       .  S
C1335      C1336   1.409       .  A
C1335     Br1350   1.930       .  S
C1336      C1339   1.484       .  S
C1336      C1337   1.410       .  A
C1337      C1338   1.409       .  A
C1337     Br1345   1.929       .  S
C1338     Br1349   1.929       .  S
C1339      C1340   1.408       .  A
C1339      C1344   1.409       .  A
C1340      C1341   1.405       .  A
C1340     Br1351   1.932       .  S
C1341      C1342   1.413       .  A
C1341     Br1347   1.933       .  S
C1342      C1343   1.412       .  A
C1343      C1344   1.409       .  A
C1343     Br1352   1.930       .  S
C1344     Br1348   1.928       .  S
C1353      C1354   1.413       .  A
C1353      C1358   1.413       .  A
C1354      C1355   1.409       .  A
C1354     Br1366   1.930       .  S
C1355      C1356   1.409       .  A
C1355     Br1370   1.929       .  S
C1356      C1359   1.487       .  S
C1356      C1357   1.409       .  A
C1357      C1358   1.408       .  A
C1357     Br1365   1.930       .  S
C1358     Br1369   1.932       .  S
C1359      C1360   1.409       .  A
C1359      C1364   1.410       .  A
C1360      C1361   1.410       .  A
C1360     Br1371   1.928       .  S
C1361      C1362   1.410       .  A
C1361     Br1367   1.928       .  S
C1362      C1363   1.410       .  A
C1363      C1364   1.408       .  A
C1363     Br1372   1.930       .  S
C1364     Br1368   1.930       .  S
C1373      C1374   1.412       .  A
C1373      C1378   1.411       .  A
C1374      C1375   1.410       .  A
C1374     Br1386   1.931       .  S
C1375      C1376   1.412       .  A
C1375     Br1390   1.931       .  S
C1376      C1379   1.489       .  S
C1376      C1377   1.409       .  A
C1377      C1378   1.409       .  A
C1377     Br1385   1.929       .  S
C1378     Br1389   1.929       .  S
C1379      C1380   1.411       .  A
C1379      C1384   1.411       .  A
C1380      C1381   1.408       .  A
C1380     Br1391   1.929       .  S
C1381      C1382   1.409       .  A
C1381     Br1387   1.930       .  S
C1382      C1383   1.411       .  A
C1383      C1384   1.408       .  A
C1383     Br1392   1.932       .  S
C1384     Br1388   1.930       .  S
C1393      C1394   1.414       .  A
C1393      C1398   1.415       .  A
C1394      C1395   1.410       .  A
C1394     Br1406   1.929       .  S
C1395      C1396   1.408       .  A
C1395     Br1410   1.929       .  S
C1396      C1399   1.482       .  S
C1396      C1397   1.406       .  A
C1397      C1398   1.404       .  A
C1397     Br1405   1.932       .  S
C1398     Br1409   1.934       .  S
C1399      C1400   1.408       .  A
C1399      C1404   1.408       .  A
C1400      C1401   1.406       .  A
C1400     Br1411   1.931       .  S
C1401      C1402   1.414       .  A
C1401     Br1407   1.933       .  S
C1402      C1403   1.412       .  A
C1403      C1404   1.407       .  A
C1403     Br1412   1.930       .  S
C1404     Br1408   1.930       .  S
C1413      C1414   1.409       .  A
C1413      C1418   1.409       .  A
C1414      C1415   1.408       .  A
C1414     Br1426   1.929       .  S
C1415      C1416   1.410       .  A
C1415     Br1430   1.929       .  S
C1416      C1419   1.483       .  S
C1416      C1417   1.408       .  A
C1417      C1418   1.406       .  A
C1417     Br1425   1.930       .  S
C1418     Br1429   1.929       .  S
C1419      C1420   1.410       .  A
C1419      C1424   1.410       .  A
C1420      C1421   1.405       .  A
C1420     Br1431   1.930       .  S
C1421      C1422   1.407       .  A
C1421     Br1427   1.930       .  S
C1422      C1423   1.407       .  A
C1423      C1424   1.407       .  A
C1423     Br1432   1.929       .  S
C1424     Br1428   1.928       .  S
C1433      C1434   1.409       .  A
C1433      C1438   1.410       .  A
C1434      C1435   1.409       .  A
C1434     Br1446   1.928       .  S
C1435      C1436   1.410       .  A
C1435     Br1450   1.928       .  S
C1436      C1439   1.485       .  S
C1436      C1437   1.409       .  A
C1437      C1438   1.406       .  A
C1437     Br1445   1.930       .  S
C1438     Br1449   1.932       .  S
C1439      C1440   1.407       .  A
C1439      C1444   1.410       .  A
C1440      C1441   1.405       .  A
C1440     Br1451   1.932       .  S
C1441      C1442   1.413       .  A
C1441     Br1447   1.932       .  S
C1442      C1443   1.412       .  A
C1443      C1444   1.411       .  A
C1443     Br1452   1.930   1_545  S
C1444     Br1448   1.928       .  S
C1453      C1454   1.407       .  A
C1453      C1458   1.408       .  A
C1454      C1455   1.406       .  A
C1454     Br1466   1.929   1_655  S
C1455      C1456   1.409       .  A
C1455     Br1470   1.929       .  S
C1456      C1459   1.481       .  S
C1456      C1457   1.409       .  A
C1457      C1458   1.407       .  A
C1457     Br1465   1.929       .  S
C1458     Br1469   1.929       .  S
C1459      C1460   1.408       .  A
C1459      C1464   1.409       .  A
C1460      C1461   1.408       .  A
C1460     Br1471   1.928       .  S
C1461      C1462   1.409       .  A
C1461     Br1467   1.929       .  S
C1462      C1463   1.410       .  A
C1463      C1464   1.405       .  A
C1463     Br1472   1.931       .  S
C1464     Br1468   1.932       .  S
C1473      C1474   1.415       .  A
C1473      C1478   1.414       .  A
C1474      C1475   1.407       .  A
C1474     Br1486   1.933       .  S
C1475      C1476   1.408       .  A
C1475     Br1490   1.931       .  S
C1476      C1479   1.488       .  S
C1476      C1477   1.409       .  A
C1477      C1478   1.410       .  A
C1477     Br1485   1.929       .  S
C1478     Br1489   1.931   1_655  S
C1479      C1480   1.409       .  A
C1479      C1484   1.410       .  A
C1480      C1481   1.410       .  A
C1480     Br1491   1.929       .  S
C1481      C1482   1.413       .  A
C1481     Br1487   1.929       .  S
C1482      C1483   1.413       .  A
C1483      C1484   1.408       .  A
C1483     Br1492   1.932       .  S
C1484     Br1488   1.931       .  S
C1493      C1494   1.411       .  A
C1493      C1498   1.411       .  A
C1494      C1495   1.406       .  A
C1494     Br1506   1.932       .  S
C1495      C1496   1.408       .  A
C1495     Br1510   1.930       .  S
C1496      C1499   1.481       .  S
C1496      C1497   1.408       .  A
C1497      C1498   1.406       .  A
C1497     Br1505   1.930       .  S
C1498     Br1509   1.931       .  S
C1499      C1500   1.408       .  A
C1499      C1504   1.410       .  A
C1500      C1501   1.407       .  A
C1500     Br1511   1.928       .  S
C1501      C1502   1.410       .  A
C1501     Br1507   1.929       .  S
C1502      C1503   1.408       .  A
C1503      C1504   1.405       .  A
C1503     Br1512   1.930       .  S
C1504     Br1508   1.931       .  S
C1513      C1514   1.412       .  A
C1513      C1518   1.411       .  A
C1514      C1515   1.407       .  A
C1514     Br1526   1.930       .  S
C1515      C1516   1.407       .  A
C1515     Br1530   1.929       .  S
C1516      C1519   1.485       .  S
C1516      C1517   1.410       .  A
C1517      C1518   1.408       .  A
C1517     Br1525   1.931       .  S
C1518     Br1529   1.931       .  S
C1519      C1520   1.407       .  A
C1519      C1524   1.409       .  A
C1520      C1521   1.406       .  A
C1520     Br1531   1.931       .  S
C1521      C1522   1.414       .  A
C1521     Br1527   1.933       .  S
C1522      C1523   1.412       .  A
C1523      C1524   1.409       .  A
C1523     Br1532   1.930   1_655  S
C1524     Br1528   1.929       .  S
C1533      C1534   1.414       .  A
C1533      C1538   1.412       .  A
C1534      C1535   1.408       .  A
C1534     Br1546   1.932       .  S
C1535      C1536   1.408       .  A
C1535     Br1550   1.930       .  S
C1536      C1539   1.489       .  S
C1536      C1537   1.410       .  A
C1537      C1538   1.411       .  A
C1537     Br1545   1.928       .  S
C1538     Br1549   1.929       .  S
C1539      C1540   1.410       .  A
C1539      C1544   1.410       .  A
C1540      C1541   1.410       .  A
C1540     Br1551   1.927       .  S
C1541      C1542   1.410       .  A
C1541     Br1547   1.929       .  S
C1542      C1543   1.411       .  A
C1543      C1544   1.409       .  A
C1543     Br1552   1.930       .  S
C1544     Br1548   1.931       .  S
C1553      C1554   1.408       .  A
C1553      C1558   1.410       .  A
C1554      C1555   1.406       .  A
C1554     Br1566   1.931       .  S
C1555      C1556   1.411       .  A
C1555     Br1570   1.930       .  S
C1556      C1559   1.486       .  S
C1556      C1557   1.410       .  A
C1557      C1558   1.409       .  A
C1557     Br1565   1.928       .  S
C1558     Br1569   1.930       .  S
C1559      C1560   1.410       .  A
C1559      C1564   1.409       .  A
C1560      C1561   1.409       .  A
C1560     Br1571   1.929       .  S
C1561      C1562   1.410       .  A
C1561     Br1567   1.929       .  S
C1562      C1563   1.411       .  A
C1563      C1564   1.408       .  A
C1563     Br1572   1.930       .  S
C1564     Br1568   1.930       .  S
C1573      C1574   1.410       .  A
C1573      C1578   1.411       .  A
C1574      C1575   1.404       .  A
C1574     Br1586   1.931       .  S
C1575      C1576   1.408       .  A
C1575     Br1590   1.931       .  S
C1576      C1579   1.483       .  S
C1576      C1577   1.410       .  A
C1577      C1578   1.410       .  A
C1577     Br1585   1.929       .  S
C1578     Br1589   1.930   1_655  S
C1579      C1580   1.407       .  A
C1579      C1584   1.406       .  A
C1580      C1581   1.407       .  A
C1580     Br1591   1.933       .  S
C1581      C1582   1.417       .  A
C1581     Br1587   1.933       .  S
C1582      C1583   1.416       .  A
C1583      C1584   1.408       .  A
C1583     Br1592   1.932       .  S
C1584     Br1588   1.930       .  S
C1593      C1594   1.418       .  A
C1593      C1598   1.416       .  A
C1594      C1595   1.408       .  A
C1594     Br1606   1.934       .  S
C1595      C1596   1.407       .  A
C1595     Br1610   1.931       .  S
C1596      C1599   1.490       .  S
C1596      C1597   1.409       .  A
C1597      C1598   1.411       .  A
C1597     Br1605   1.929       .  S
C1598     Br1609   1.930       .  S
C1599      C1600   1.410       .  A
C1599      C1604   1.408       .  A
C1600      C1601   1.410       .  A
C1600     Br1611   1.930       .  S
C1601      C1602   1.414       .  A
C1601     Br1607   1.931       .  S
C1602      C1603   1.414       .  A
C1603      C1604   1.409       .  A
C1603     Br1612   1.930       .  S
C1604     Br1608   1.929       .  S
C1613      C1614   1.408       .  A
C1613      C1618   1.408       .  A
C1614      C1615   1.406       .  A
C1614     Br1626   1.930       .  S
C1615      C1616   1.410       .  A
C1615     Br1630   1.931       .  S
C1616      C1619   1.484       .  S
C1616      C1617   1.409       .  A
C1617      C1618   1.409       .  A
C1617     Br1625   1.928       .  S
C1618     Br1629   1.928       .  S
C1619      C1620   1.409       .  A
C1619      C1624   1.408       .  A
C1620      C1621   1.409       .  A
C1620     Br1631   1.928       .  S
C1621      C1622   1.410       .  A
C1621     Br1627   1.929   1_545  S
C1622      C1623   1.410       .  A
C1623      C1624   1.406       .  A
C1623     Br1632   1.930       .  S
C1624     Br1628   1.931       .  S
C1633      C1634   1.410       .  A
C1633      C1638   1.409       .  A
C1634      C1635   1.407       .  A
C1634     Br1646   1.931       .  S
C1635      C1636   1.409       .  A
C1635     Br1650   1.930       .  S
C1636      C1639   1.484       .  S
C1636      C1637   1.409       .  A
C1637      C1638   1.409       .  A
C1637     Br1645   1.928       .  S
C1638     Br1649   1.929       .  S
C1639      C1640   1.409       .  A
C1639      C1644   1.407       .  A
C1640      C1641   1.410       .  A
C1640     Br1651   1.929       .  S
C1641      C1642   1.411       .  A
C1641     Br1647   1.929   1_655  S
C1642      C1643   1.413       .  A
C1643      C1644   1.406       .  A
C1643     Br1652   1.932       .  S
C1644     Br1648   1.931       .  S
C1653      C1654   1.409       .  A
C1653      C1658   1.407       .  A
C1654      C1655   1.407       .  A
C1654     Br1666   1.929       .  S
C1655      C1656   1.408       .  A
C1655     Br1670   1.928       .  S
C1656      C1659   1.481       .  S
C1656      C1657   1.410       .  A
C1657      C1658   1.406       .  A
C1657     Br1665   1.930       .  S
C1658     Br1669   1.930       .  S
C1659      C1660   1.410       .  A
C1659      C1664   1.409       .  A
C1660      C1661   1.407       .  A
C1660     Br1671   1.929       .  S
C1661      C1662   1.407       .  A
C1661     Br1667   1.929       .  S
C1662      C1663   1.407       .  A
C1663      C1664   1.406       .  A
C1663     Br1672   1.930       .  S
C1664     Br1668   1.929       .  S
C1673      C1674   1.412       .  A
C1673      C1678   1.410       .  A
C1674      C1675   1.407       .  A
C1674     Br1686   1.932       .  S
C1675      C1676   1.409       .  A
C1675     Br1690   1.930       .  S
C1676      C1679   1.485       .  S
C1676      C1677   1.409       .  A
C1677      C1678   1.409       .  A
C1677     Br1685   1.928       .  S
C1678     Br1689   1.929       .  S
C1679      C1680   1.409       .  A
C1679      C1684   1.410       .  A
C1680      C1681   1.406       .  A
C1680     Br1691   1.930       .  S
C1681      C1682   1.409       .  A
C1681     Br1687   1.930       .  S
C1682      C1683   1.409       .  A
C1683      C1684   1.410       .  A
C1683     Br1692   1.929       .  S
C1684     Br1688   1.928       .  S
