geometry optimzed in LAMMPS
_audit_creation_date              2020-12-01 
_audit_creation_method            'lammps2cif' 
_symmetry_space_group_name_H-M    'P1' 
_symmetry_Int_Tables_number       1 
_symmetry_cell_setting            triclinic 
loop_ 
_symmetry_equiv_pos_as_xyz 
  x,y,z 
_cell_length_a                    25.32948525 
_cell_length_b                    31.68755330179874 
_cell_length_c                    46.96919930900253 
_cell_angle_alpha                 89.95616459178906 
_cell_angle_beta                  90.25592988361457 
_cell_angle_gamma                 90.34629611426492 
loop_ 
_atom_site_label 
_atom_site_type_symbol 
_atom_site_fract_x 
_atom_site_fract_y 
_atom_site_fract_z 
_atom_site_charge 
C1          C  0.99532710  0.48190919  0.47245951     0.03200
C2          C  0.98482308  0.52590877  0.47236869     0.03100
C3          C  0.97996800  0.54681175  0.99868788    -0.17400
C4          C  0.98360245  0.52535637  0.02501700     0.03200
C5          C  0.99082168  0.48088353  0.02507049     0.03100
C6          C  0.99672528  0.46002043  0.49869592    -0.17400
H7          H  0.00262629  0.42600506  0.99858227     0.05200
H8          H  0.97300087  0.58067803  0.49883752     0.05200
O9          O  0.97423941  0.29590060  0.28267326    -0.80900
C10         C  0.05521881  0.20292469  0.19393682     0.98400
O11         O  0.08052150  0.23327739  0.20605989    -0.70000
O12         O  0.03143142  0.30338332  0.21776428    -0.73600
Al13       Al  0.06638511  0.26526346  0.24124227     1.49000
C14         C  0.98495229  0.31163886  0.21038152     0.93700
O15         O  0.90422500  0.22144621  0.23218264    -0.79900
O16         O  0.00901588  0.17518361  0.28483227    -0.73400
Al17       Al  0.94667740  0.25654954  0.25648141     1.90100
O18         O  0.94106932  0.16245630  0.24251352    -0.72500
O19         O  0.08789763  0.17209710  0.24889568    -0.72300
O20         O  0.02013068  0.18128594  0.20659771    -0.78000
O21         O  0.11484154  0.23297463  0.26368852    -0.76200
O22         O  0.00892673  0.23403855  0.24784383    -1.12300
O23         O  0.05911801  0.30043809  0.27501532    -0.71500
C24         C  0.01901765  0.30938840  0.28983232     0.99200
C25         C  0.90099322  0.18208707  0.23443489     0.95600
Al26       Al  0.01395782  0.17823552  0.24584650     1.55600
O27         O  0.94645132  0.29643594  0.22436590    -0.76100
C28         C  0.12366320  0.19469986  0.25931487     0.99800
C29         C  0.97277527  0.19123797  0.29963999     0.94600
O30         O  0.94045171  0.21867871  0.28964660    -0.81500
C31         C  0.45338975  0.97862371  0.24283285     0.03200
C32         C  0.45535408  0.02289009  0.24712261     0.03100
C33         C  0.50452046  0.04384147  0.24735749    -0.17400
C34         C  0.55237343  0.02163689  0.24580990     0.03200
C35         C  0.55052237  0.97681799  0.24447815     0.03100
C36         C  0.50120850  0.95615161  0.24222217    -0.17400
H37         H  0.49990342  0.92195313  0.24109975     0.05200
H38         H  0.50529649  0.07803118  0.24851726     0.05200
O39         O  0.96396269  0.70598449  0.21672347    -0.80900
C40         C  0.04585627  0.79551006  0.30636016     0.98400
O41         O  0.07078284  0.76605569  0.29365272    -0.70000
O42         O  0.02344773  0.69461482  0.28068496    -0.73600
Al43       Al  0.05658110  0.73608580  0.25802006     1.49000
C44         C  0.97669070  0.68496357  0.28671302     0.93700
O45         O  0.89351598  0.77540286  0.26946866    -0.79900
O46         O  0.98957317  0.82862418  0.21583315    -0.73400
Al47       Al  0.93560816  0.74296877  0.24377032     1.90100
O48         O  0.92871577  0.83605923  0.26110713    -0.72500
O49         O  0.07401080  0.83101756  0.24974535    -0.72300
O50         O  0.01134411  0.81794173  0.29405930    -0.78000
O51         O  0.10455707  0.77085703  0.23650688    -0.76200
O52         O  0.99777652  0.76672940  0.25204401    -1.12300
O53         O  0.04938338  0.70250312  0.22356733    -0.71500
C54         C  0.00863988  0.69314224  0.20911477     0.99200
C55         C  0.88955535  0.81483621  0.26868463     0.95600
Al56       Al  0.00086675  0.82273290  0.25498050     1.55600
O57         O  0.93863127  0.70218145  0.27386121    -0.76100
C58         C  0.11128891  0.80972387  0.24009836     0.99800
C59         C  0.95120952  0.81215958  0.20227264     0.94600
O60         O  0.92389841  0.78156164  0.21216239    -0.81500
C61         C  0.00184599  0.97092595  0.47695088     0.03200
C62         C  0.99562877  0.01519116  0.47355054     0.03100
C63         C  0.99853263  0.04141542  0.49756700    -0.17400
C64         C  0.99994341  0.02484958  0.02497355     0.03200
C65         C  0.99732069  0.98089701  0.02848593     0.03100
C66         C  0.99905173  0.95435835  0.50456923    -0.17400
H67         H  0.99746667  0.92044475  0.50757797     0.05200
H68         H  0.99952785  0.07542130  0.49487486     0.05200
C69         C  0.91327264  0.89008568  0.14628108    -0.13500
C70         C  0.94646120  0.87720056  0.12417784     0.16900
C71         C  0.97304636  0.83822252  0.12642068     0.03200
C72         C  0.96921571  0.81462568  0.15142162    -0.12000
C73         C  0.93944139  0.82935187  0.17422915    -0.03100
C74         C  0.90946090  0.86634487  0.17124863     0.02400
C75         C  0.95843197  0.90724079  0.10100275     0.09300
N76         N  0.00679755  0.82340342  0.10431555     0.65600
H77         H  0.99256364  0.78644473  0.15379218     0.18500
N78         N  0.87904368  0.88242915  0.19430084     0.76100
H79         H  0.89356693  0.92004178  0.14515414     0.10100
C80         C  0.91847521  0.92514185  0.08393659     0.03800
C81         C  0.93232327  0.95143801  0.06132780    -0.05000
C82         C  0.98528005  0.96124765  0.05594893    -0.23400
C83         C  0.02493890  0.94618521  0.07422363     0.13000
C84         C  0.01121536  0.91953846  0.09674014    -0.12500
N85         N  0.86386812  0.91606731  0.08860393     0.64700
H86         H  0.90186922  0.96298739  0.04728003     0.12500
N87         N  0.07923552  0.95660101  0.06981710     0.61300
H88         H  0.04178973  0.90810946  0.11068012     0.08700
O89         O  0.89828133  0.91168090  0.20935675    -0.40200
O90         O  0.82975651  0.87638501  0.19434005    -0.39300
O91         O  0.05618622  0.82576412  0.10770591    -0.39300
O92         O  0.98826507  0.79828267  0.08594793    -0.37000
O93         O  0.10817594  0.93098495  0.05663708    -0.37900
O94         O  0.10054538  0.98462365  0.08517632    -0.34100
O95         O  0.83565833  0.94342859  0.10062969    -0.35500
O96         O  0.84176071  0.88724626  0.07428816    -0.39800
C97         C  0.02154806  0.82108599  0.38213817    -0.13500
C98         C  0.05216083  0.85787299  0.38435723     0.16900
C99         C  0.08987555  0.86725760  0.36334624     0.03200
C100        C  0.09286756  0.84191315  0.33906774    -0.12000
C101        C  0.05853464  0.80747805  0.33555497    -0.03100
C102        C  0.02431656  0.79594055  0.35778522     0.02400
C103        C  0.04007966  0.88786825  0.40727940     0.09300
N104        N  0.12198417  0.90437477  0.36510435     0.65600
H105        H  0.11820878  0.85151946  0.32182192     0.18500
N106        N  0.98895529  0.76093599  0.35493153     0.76100
H107        H  0.99314405  0.81350075  0.39839612     0.10100
C108        C  0.99565780  0.91421937  0.40538643     0.03800
C109        C  0.98239188  0.94029859  0.42835954    -0.05000
C110        C  0.01403987  0.94142875  0.45306049    -0.23400
C111        C  0.05816499  0.91403133  0.45479835     0.13000
C112        C  0.07066572  0.88774156  0.43197229    -0.12500
N113        N  0.96398943  0.91470472  0.38010726     0.64700
H114        H  0.94765716  0.95986864  0.42678209     0.12500
N115        N  0.09110547  0.91241088  0.47955531     0.61300
H116        H  0.10418428  0.86686295  0.43362960     0.08700
O117        O  0.94154914  0.76747104  0.34792659    -0.40200
O118        O  0.00116101  0.72623962  0.36630195    -0.39300
O119        O  0.16886701  0.90133443  0.37401262    -0.39300
O120        O  0.10833109  0.93701959  0.35162253    -0.37000
O121        O  0.13365380  0.93321852  0.97971665    -0.37900
O122        O  0.08524236  0.88227245  0.49686943    -0.34100
O123        O  0.92555270  0.88941377  0.37777563    -0.35500
O124        O  0.98049241  0.93394959  0.35833124    -0.39800
C125        C  0.25932985  0.83575043  0.23639871    -0.13500
C126        C  0.25787402  0.88014261  0.23656392     0.16900
C127        C  0.20846188  0.89993888  0.23415325     0.03200
C128        C  0.16200518  0.87597958  0.23308235    -0.12000
C129        C  0.16271555  0.83173776  0.23475052    -0.03100
C130        C  0.21238188  0.81148977  0.23541145     0.02400
C131        C  0.30779708  0.90559309  0.23863453     0.09300
N132        N  0.20392457  0.94451767  0.23656587     0.65600
H133        H  0.12488484  0.89251506  0.23252988     0.18500
N134        N  0.21615378  0.76657424  0.23606594     0.76100
H135        H  0.29683906  0.81991473  0.23738686     0.10100
C136        C  0.34256986  0.90236127  0.26211815     0.03800
C137        C  0.38931052  0.92649005  0.26300051    -0.05000
C138        C  0.40244519  0.95449740  0.24093037    -0.23400
C139        C  0.36790947  0.95746341  0.21725040     0.13000
C140        C  0.32099720  0.93346663  0.21647895    -0.12500
N141        N  0.33041372  0.87563264  0.28571331     0.64700
H142        H  0.41533172  0.92356418  0.28112373     0.12500
N143        N  0.38130525  0.98221951  0.19285521     0.61300
H144        H  0.29556948  0.93563990  0.19807699     0.08700
O145        O  0.22368855  0.74818526  0.25955428    -0.40200
O146        O  0.22483423  0.74695767  0.21320825    -0.39300
O147        O  0.19461088  0.96607987  0.21452301    -0.39300
O148        O  0.19286105  0.95948195  0.26065605    -0.37000
O149        O  0.41135150  0.96648407  0.17437522    -0.37900
O150        O  0.35170178  0.01237193  0.18576745    -0.34100
O151        O  0.35391838  0.84082933  0.28822515    -0.35500
O152        O  0.30744712  0.89109818  0.30704813    -0.39800
C153        C  0.66204792  0.89632753  0.23766093    -0.13500
C154        C  0.68853589  0.90154915  0.26384239     0.16900
C155        C  0.66940705  0.93215951  0.28307617     0.03200
C156        C  0.62526407  0.95651238  0.27592509    -0.12000
C157        C  0.59870660  0.95106088  0.24991727    -0.03100
C158        C  0.61719589  0.92024984  0.23074609     0.02400
C159        C  0.73854215  0.87773501  0.26933720     0.09300
N160        N  0.69330725  0.93835639  0.31037446     0.65600
H161        H  0.61103657  0.97935797  0.29104781     0.18500
N162        N  0.59232444  0.91385676  0.20371421     0.76100
H163        H  0.67698305  0.87449055  0.22214868     0.10100
C164        C  0.74196897  0.83346423  0.26590934     0.03800
C165        C  0.79108239  0.81325327  0.26790544    -0.05000
C166        C  0.83780148  0.83613140  0.27315967    -0.23400
C167        C  0.83393773  0.88011876  0.27809633     0.13000
C168        C  0.78491110  0.90032188  0.27586303    -0.12500
N169        N  0.69617448  0.80839457  0.25991995     0.64700
H170        H  0.79281556  0.77970493  0.26396078     0.12500
N171        N  0.87917445  0.90499045  0.28561696     0.61300
H172        H  0.78359720  0.93415042  0.27822672     0.08700
O173        O  0.56254199  0.88219451  0.20025318    -0.40200
O174        O  0.61086470  0.93232857  0.18211867    -0.39300
O175        O  0.71997224  0.97148846  0.31482703    -0.39300
O176        O  0.67575237  0.91785726  0.33137284    -0.37000
O177        O  0.90067399  0.92791720  0.26696294    -0.37900
O178        O  0.88769076  0.91301186  0.31154145    -0.34100
O179        O  0.68914550  0.79443708  0.23502270    -0.35500
O180        O  0.67201695  0.79110539  0.28030397    -0.39800
C181        C  0.98644186  0.10230771  0.08613640    -0.13500
C182        C  0.03935432  0.11493033  0.09006687     0.16900
C183        C  0.07879469  0.09563096  0.07337290     0.03200
C184        C  0.06466832  0.06549790  0.05295557    -0.12000
C185        C  0.01185216  0.05382007  0.04873629    -0.03100
C186        C  0.97237253  0.07268829  0.06526973     0.02400
C187        C  0.05263376  0.14458762  0.11367281     0.09300
N188        N  0.13341596  0.10635775  0.07652749     0.65600
H189        H  0.09497746  0.05153161  0.04006550     0.18500
N190        N  0.91781834  0.06297890  0.06082046     0.76100
H191        H  0.95609173  0.11475468  0.09948803     0.10100
C192        C  0.02456756  0.18257549  0.11818666     0.03800
C193        C  0.03178646  0.20512901  0.14354116    -0.05000
C194        C  0.06611092  0.19045286  0.16465642    -0.23400
C195        C  0.09666229  0.15435061  0.15950599     0.13000
C196        C  0.08960984  0.13172321  0.13424868    -0.12500
N197        N  0.98600700  0.19741430  0.09829883     0.64700
H198        H  0.00713525  0.23210243  0.14776118     0.12500
N199        N  0.13103630  0.13773830  0.18093140     0.61300
H200        H  0.10989976  0.10221656  0.13195721     0.08700
O201        O  0.89097726  0.08633610  0.04459073    -0.40200
O202        O  0.89421253  0.03976054  0.07855841    -0.39300
O203        O  0.16395905  0.08036161  0.08844331    -0.39300
O204        O  0.15287509  0.13464970  0.06077116    -0.37000
O205        O  0.18006476  0.14430360  0.17898060    -0.37900
O206        O  0.11453955  0.10868747  0.19705217    -0.34100
O207        O  0.93769211  0.19306879  0.10418117    -0.35500
O208        O  0.99941795  0.22517398  0.08043406    -0.39800
C209        C  0.01145761  0.14069049  0.36819441    -0.13500
C210        C  0.96720764  0.11500006  0.37287440     0.16900
C211        C  0.92087113  0.12169248  0.35660667     0.03200
C212        C  0.92107575  0.15175140  0.33475727    -0.12000
C213        C  0.96742963  0.17379451  0.32820264    -0.03100
C214        C  0.01273920  0.16875127  0.34546325     0.02400
C215        C  0.97032277  0.08344055  0.39598377     0.09300
N216        N  0.87500313  0.09579094  0.36014836     0.65600
H217        H  0.88683564  0.15458842  0.32110763     0.18500
N218        N  0.06165791  0.18940338  0.33894168     0.76100
H219        H  0.04605285  0.13774621  0.38148811     0.10100
C220        C  0.01397398  0.05597561  0.39868567     0.03800
C221        C  0.02154850  0.03329304  0.42388536    -0.05000
C222        C  0.98491776  0.03597328  0.44599915    -0.23400
C223        C  0.93979281  0.06159095  0.44258763     0.13000
C224        C  0.93323977  0.08533207  0.41787214    -0.12500
N225        N  0.05112754  0.05088852  0.37612861     0.64700
H226        H  0.05629138  0.01408708  0.42629926     0.12500
N227        N  0.90108288  0.06516071  0.46451185     0.61300
H228        H  0.90050113  0.10677915  0.41647114     0.08700
O229        O  0.09533901  0.16993552  0.32433029    -0.40200
O230        O  0.07686440  0.21997853  0.35415497    -0.39300
O231        O  0.83421904  0.11152648  0.37111116    -0.39300
O232        O  0.87069918  0.06236172  0.34572155    -0.37000
O233        O  0.85924233  0.04311777  0.96288171    -0.37900
O234        O  0.90165711  0.09726294  0.48039949    -0.34100
O235        O  0.09671107  0.06679957  0.37860303    -0.35500
O236        O  0.04343595  0.02205482  0.35804805    -0.39800
C237        C  0.79697977  0.09415050  0.22878284    -0.13500
C238        C  0.74954667  0.11674138  0.23032513     0.16900
C239        C  0.75258988  0.16142447  0.23088432     0.03200
C240        C  0.80202353  0.18203899  0.23080338    -0.12000
C241        C  0.84951303  0.15927286  0.23005736    -0.03100
C242        C  0.84625410  0.11471016  0.22819966     0.02400
C243        C  0.69824830  0.09298120  0.23350882     0.09300
N244        N  0.70596943  0.18659129  0.23155759     0.65600
H245        H  0.80309645  0.21610038  0.23217211     0.18500
N246        N  0.89252738  0.08948248  0.22563437     0.76100
H247        H  0.79616027  0.06008967  0.22897741     0.10100
C248        C  0.68387332  0.05894018  0.21545527     0.03800
C249        C  0.63688076  0.03631184  0.22016423    -0.05000
C250        C  0.60340107  0.04576239  0.24299213    -0.23400
C251        C  0.61817382  0.07913963  0.26145281     0.13000
C252        C  0.66496023  0.10218917  0.25656149    -0.12500
N253        N  0.71605796  0.04690704  0.19195075     0.64700
H254        H  0.62612358  0.01135136  0.20549640     0.12500
N255        N  0.58782410  0.08872237  0.28616528     0.61300
H256        H  0.67622835  0.12651453  0.27157840     0.08700
O257        O  0.90612036  0.07677561  0.20130523    -0.40200
O258        O  0.91110932  0.07158657  0.24745995    -0.39300
O259        O  0.69340456  0.20471249  0.25444480    -0.39300
O260        O  0.68650667  0.19955378  0.20839963    -0.37000
O261        O  0.59944334  0.07111397  0.30944874    -0.37900
O262        O  0.56047116  0.12187142  0.28648415    -0.34100
O263        O  0.74271362  0.01347372  0.19376274    -0.35500
O264        O  0.70607247  0.06192641  0.16764973    -0.39800
C265        C  0.33524817  0.07461832  0.28064770    -0.13500
C266        C  0.31709937  0.10019626  0.25824357     0.16900
C267        C  0.34540602  0.10037882  0.23234921     0.03200
C268        C  0.39030199  0.07513977  0.22929832    -0.12000
C269        C  0.40707504  0.04850535  0.25130144    -0.03100
C270        C  0.37977146  0.04896616  0.27741549     0.02400
C271        C  0.26889336  0.12639422  0.26240163     0.09300
N272        N  0.32831620  0.12491804  0.20854187     0.65600
H273        H  0.41172552  0.07583929  0.20949927     0.18500
N274        N  0.39854646  0.02574891  0.30146464     0.76100
H275        H  0.31554227  0.07524242  0.30092705     0.10100
C276        C  0.22108510  0.10818538  0.27176005     0.03800
C277        C  0.17524246  0.13229271  0.27288598    -0.05000
C278        C  0.17545296  0.17491836  0.26503085    -0.23400
C279        C  0.22399277  0.19433390  0.25804072     0.13000
C280        C  0.27020599  0.16999101  0.25676423    -0.12500
N281        N  0.21650027  0.06401420  0.27672330     0.64700
H282        H  0.13850424  0.11680742  0.27828905     0.12500
N283        N  0.22670052  0.23790518  0.25043162     0.61300
H284        H  0.30680850  0.18497625  0.25071963     0.08700
O285        O  0.37237724  0.99430458  0.31012459    -0.40200
O286        O  0.43132509  0.04310066  0.31811397    -0.39300
O287        O  0.35361417  0.15795019  0.20205344    -0.39300
O288        O  0.29804959  0.10823096  0.19029398    -0.37000
O289        O  0.24091430  0.26451349  0.26895097    -0.37900
O290        O  0.22775851  0.24807663  0.22446386    -0.34100
O291        O  0.21264969  0.05067576  0.30196242    -0.35500
O292        O  0.20029909  0.04115179  0.25654548    -0.39800
C293        C  0.93532987  0.38241765  0.14852410    -0.13500
C294        C  0.97898328  0.38068740  0.12995461     0.16900
C295        C  0.02253882  0.35587976  0.13816933     0.03200
C296        C  0.02223570  0.33435390  0.16412639    -0.12000
C297        C  0.97934632  0.33628823  0.18313352    -0.03100
C298        C  0.93507858  0.36041653  0.17483712     0.02400
C299        C  0.98060783  0.40666800  0.10311515     0.09300
N300        N  0.06751349  0.35120218  0.12016551     0.65600
H301        H  0.05627314  0.31538477  0.16914511     0.18500
N302        N  0.89060058  0.36458970  0.19313600     0.76100
H303        H  0.90202055  0.40179606  0.14301971     0.10100
C304        C  0.94177397  0.40342497  0.08150486     0.03800
C305        C  0.94642835  0.42739924  0.05632641    -0.05000
C306        C  0.98922897  0.45514268  0.05196753    -0.23400
C307        C  0.02855951  0.45779011  0.07336221     0.13000
C308        C  0.02322189  0.43455671  0.09874121    -0.12500
N309        N  0.89777986  0.37537441  0.08442035     0.64700
H310        H  0.91613578  0.42466225  0.04020846     0.12500
N311        N  0.07612129  0.48136919  0.06904541     0.61300
H312        H  0.05326376  0.43772568  0.11490564     0.08700
O313        O  0.84944221  0.34326779  0.18797589    -0.40200
O314        O  0.88757218  0.39653986  0.20904979    -0.39300
O315        O  0.10979589  0.37029569  0.12657389    -0.39300
O316        O  0.06956225  0.31973955  0.10376917    -0.37000
O317        O  0.11156757  0.46570948  0.05356990    -0.37900
O318        O  0.08884965  0.50955421  0.08679414    -0.34100
O319        O  0.85347315  0.39010442  0.09131975    -0.35500
O320        O  0.89999056  0.33909571  0.07345614    -0.39800
C321        C  0.99530791  0.34792222  0.36564157    -0.13500
C322        C  0.01952253  0.38774924  0.36596066     0.16900
C323        C  0.04976351  0.39955253  0.34172245     0.03200
C324        C  0.05172122  0.37281332  0.31758908    -0.12000
C325        C  0.02276291  0.33486101  0.31660836    -0.03100
C326        C  0.99463296  0.32256013  0.34130496     0.02400
C327        C  0.01265251  0.41470908  0.39221991     0.09300
N328        N  0.07733376  0.43897390  0.34059802     0.65600
H329        H  0.07376946  0.38275703  0.29914433     0.18500
N330        N  0.96431281  0.28442020  0.34240572     0.76100
H331        H  0.97562869  0.33639673  0.38435897     0.10100
C332        C  0.96314288  0.41754992  0.40633018     0.03800
C333        C  0.95931320  0.43756332  0.43289679    -0.05000
C334        C  0.00281454  0.45786450  0.44534269    -0.23400
C335        C  0.05189111  0.45597112  0.43128643     0.13000
C336        C  0.05660699  0.43406781  0.40531750    -0.12500
N337        N  0.91555293  0.40180002  0.39359705     0.64700
H338        H  0.92142199  0.43872587  0.44336559     0.12500
N339        N  0.09791075  0.47495152  0.44349647     0.61300
H340        H  0.09518677  0.43114920  0.39599864     0.08700
O341        O  0.91720800  0.28517496  0.33357407    -0.40200
O342        O  0.97690871  0.25689245  0.36056191    -0.39300
O343        O  0.12687535  0.43931547  0.34361440    -0.39300
O344        O  0.05526815  0.47014842  0.32892922    -0.37000
O345        O  0.12738749  0.45299281  0.45928005    -0.37900
O346        O  0.11613585  0.50828951  0.43253037    -0.34100
O347        O  0.89319376  0.36984067  0.40428866    -0.35500
O348        O  0.88899556  0.42600605  0.37781083    -0.39800
C349        C  0.95405734  0.57503708  0.09786142    -0.13500
C350        C  0.99932290  0.60025111  0.10197598     0.16900
C351        C  0.03797689  0.60107802  0.08048428     0.03200
C352        C  0.03088494  0.57726900  0.05555225    -0.12000
C353        C  0.98636454  0.55123019  0.05165008    -0.03100
C354        C  0.94713032  0.55074892  0.07300909     0.02400
C355        C  0.00482290  0.62566437  0.12866346     0.09300
N356        N  0.08494065  0.62580412  0.08358483     0.65600
H357        H  0.06108356  0.57822885  0.03944686     0.18500
N358        N  0.89895468  0.52760492  0.06946534     0.76100
H359        H  0.92388579  0.57432429  0.11396151     0.10100
C360        C  0.96802658  0.65722764  0.13536869     0.03800
C361        C  0.97139529  0.67857669  0.16133162    -0.05000
C362        C  0.01083428  0.66944747  0.18159205    -0.23400
C363        C  0.04860536  0.63837516  0.17474964     0.13000
C364        C  0.04527719  0.61684713  0.14843836    -0.12500
N365        N  0.92711250  0.66865261  0.11585217     0.64700
H366        H  0.94260283  0.70279189  0.16555369     0.12500
N367        N  0.08873129  0.62656442  0.19461270     0.61300
H368        H  0.07337229  0.59233369  0.14381940     0.08700
O369        O  0.88920252  0.49732980  0.08613167    -0.40200
O370        O  0.86099585  0.54509221  0.05669070    -0.39300
O371        O  0.12716325  0.60788129  0.09102171    -0.39300
O372        O  0.08725258  0.66175476  0.07208502    -0.37000
O373        O  0.08066608  0.59546709  0.21085514    -0.37900
O374        O  0.13544757  0.63923485  0.19066815    -0.34100
O375        O  0.88033466  0.65700921  0.12085868    -0.35500
O376        O  0.93497737  0.69897864  0.09894145    -0.39800
C377        C  0.00124760  0.60715680  0.41234431    -0.13500
C378        C  0.96298483  0.59372422  0.39268245     0.16900
C379        C  0.93104029  0.55869923  0.39938459     0.03200
C380        C  0.93736399  0.53806853  0.42568790    -0.12000
C381        C  0.97724013  0.55026554  0.44513032    -0.03100
C382        C  0.00876988  0.58588791  0.43828075     0.02400
C383        C  0.96114229  0.61381703  0.36412037     0.09300
N384        N  0.89436250  0.54232878  0.37892209     0.65600
H385        H  0.91103105  0.51207964  0.43082537     0.18500
N386        N  0.04967635  0.60034792  0.45695966     0.76100
H387        H  0.02657294  0.63380438  0.40714541     0.10100
C388        C  0.92405340  0.64514503  0.35690626     0.03800
C389        C  0.92674612  0.66520984  0.33025519    -0.05000
C390        C  0.96726878  0.65582631  0.31098189    -0.23400
C391        C  0.00297085  0.62315819  0.31788047     0.13000
C392        C  0.99926553  0.60233792  0.34412752    -0.12500
N393        N  0.88623803  0.65943723  0.37715575     0.64700
H394        H  0.89964640  0.69056201  0.32562003     0.12500
N395        N  0.04364368  0.61088613  0.29865490     0.61300
H396        H  0.02736845  0.57789792  0.34929841     0.08700
O397        O  0.04146027  0.63240854  0.47218035    -0.42400
O398        O  0.09665411  0.58963457  0.45210974    -0.39300
O399        O  0.91049511  0.51788946  0.35966932    -0.39300
O400        O  0.84890218  0.55811365  0.37688961    -0.37000
O401        O  0.09053736  0.62258824  0.30349124    -0.37900
O402        O  0.03537417  0.58018012  0.28210387    -0.34100
O403        O  0.89973922  0.68727331  0.39500220    -0.35500
O404        O  0.83779140  0.65267689  0.37262367    -0.39800
C405        C  0.99525309  0.48179452  0.97244586     0.03200
C406        C  0.98477864  0.52580032  0.97234330     0.03100
C407        C  0.98000245  0.54689990  0.49871996    -0.17400
C408        C  0.98365034  0.52542907  0.52504487     0.03200
C409        C  0.99087587  0.48095476  0.52508402     0.03100
C410        C  0.99665428  0.45992489  0.99869009    -0.17400
H411        H  0.00271002  0.42610218  0.49857569     0.05200
H412        H  0.97298863  0.58059353  0.99879619     0.05200
O413        O  0.97409729  0.29580732  0.78259465    -0.80900
C414        C  0.05531045  0.20282244  0.69391393     0.98400
O415        O  0.08056599  0.23319477  0.70604307    -0.70000
O416        O  0.03138405  0.30328151  0.71769856    -0.73600
Al417      Al  0.06633568  0.26519844  0.74120791     1.49000
C418        C  0.98490588  0.31152130  0.71030354     0.93700
O419        O  0.90422842  0.22130790  0.73208306    -0.79900
O420        O  0.00896141  0.17511642  0.78479038    -0.73400
Al421      Al  0.94660904  0.25643733  0.75639569     1.90100
O422        O  0.94108548  0.16233520  0.74244617    -0.72500
O423        O  0.08790483  0.17204965  0.74889487    -0.72300
O424        O  0.02020615  0.18117953  0.70655961    -0.78000
O425        O  0.11478109  0.23294591  0.76368906    -0.76200
O426        O  0.00888958  0.23395030  0.74778969    -1.12300
O427        O  0.05898079  0.30039383  0.77496850    -0.71500
C428        C  0.01885219  0.30932528  0.78976957     0.99200
C429        C  0.90100360  0.18195178  0.73435822     0.95600
Al430      Al  0.01396489  0.17814829  0.74580697     1.55600
O431        O  0.94640070  0.29631259  0.72427995    -0.76100
C432        C  0.12363765  0.19467249  0.75932768     0.99800
C433        C  0.97267985  0.19116022  0.79957423     0.94600
O434        O  0.94035357  0.21857958  0.78955961    -0.81500
C435        C  0.45337343  0.97861232  0.74297430     0.03200
C436        C  0.45535265  0.02288188  0.74725112     0.03100
C437        C  0.50452786  0.04381832  0.74748932    -0.17400
C438        C  0.55236683  0.02159621  0.74594735     0.03200
C439        C  0.55049791  0.97677930  0.74462856     0.03100
C440        C  0.50117974  0.95612534  0.74237634    -0.17400
H441        H  0.49986122  0.92192676  0.74126160     0.05200
H442        H  0.50532388  0.07800835  0.74864326     0.05200
O443        O  0.96399148  0.70601283  0.71676198    -0.80900
C444        C  0.04580034  0.79558601  0.80640041     0.98400
O445        O  0.07073826  0.76611830  0.79370968    -0.70000
O446        O  0.02345251  0.69465418  0.78072402    -0.73600
Al447      Al  0.05658052  0.73613508  0.75806878     1.49000
C448        C  0.97669747  0.68498823  0.78674318     0.93700
O449        O  0.89352296  0.77542804  0.76950268    -0.79900
O450        O  0.98957705  0.82863115  0.71584800    -0.73400
Al451      Al  0.93561497  0.74299229  0.74380463     1.90100
O452        O  0.92869717  0.83608658  0.76111354    -0.72500
O453        O  0.07398561  0.83106311  0.74977328    -0.72300
O454        O  0.01130751  0.81801205  0.79407943    -0.78000
O455        O  0.10455941  0.77090314  0.73656112    -0.76200
O456        O  0.99777338  0.76676548  0.75207953    -1.12300
O457        O  0.04941334  0.70255672  0.72361119    -0.71500
C458        C  0.00867839  0.69319091  0.70915221     0.99200
C459        C  0.88955442  0.81486111  0.76871304     0.95600
Al460      Al  0.00084918  0.82277121  0.75499852     1.55600
O461        O  0.93863728  0.70220680  0.77389406    -0.76100
C462        C  0.11127576  0.80977180  0.74013970     0.99800
C463        C  0.95122148  0.81215285  0.70228908     0.94600
O464        O  0.92389877  0.78157130  0.71219113    -0.81500
C465        C  0.00151001  0.97104613  0.97698807     0.03200
C466        C  0.99523144  0.01530166  0.97356209     0.03100
C467        C  0.99809026  0.04156259  0.99756213    -0.17400
C468        C  0.00034398  0.02466208  0.52496901     0.03200
C469        C  0.99763049  0.98070723  0.52845297     0.03100
C470        C  0.99877163  0.95451436  0.00461852    -0.17400
H471        H  0.99725236  0.92060329  0.00764976     0.05200
H472        H  0.99904824  0.07556527  0.99484890     0.05200
C473        C  0.91338162  0.88998197  0.64621830    -0.13500
C474        C  0.94658653  0.87704051  0.62413768     0.16900
C475        C  0.97314831  0.83805861  0.62642283     0.03200
C476        C  0.96927451  0.81451092  0.65144255    -0.12000
C477        C  0.93948880  0.82929605  0.67422858    -0.03100
C478        C  0.90953470  0.86629493  0.67120683     0.02400
C479        C  0.95860688  0.90703668  0.60094627     0.09300
N480        N  0.00692634  0.82319165  0.60434455     0.65600
H481        H  0.99260390  0.78632564  0.65384550     0.18500
N482        N  0.87911858  0.88244397  0.69423846     0.76100
H483        H  0.89369661  0.91994453  0.64505834     0.10100
C484        C  0.91868393  0.92490400  0.58384214     0.03800
C485        C  0.93257391  0.95118465  0.56123355    -0.05000
C486        C  0.98553736  0.96102670  0.55589854    -0.23400
C487        C  0.02516089  0.94598448  0.57420320     0.13000
C488        C  0.01139705  0.91934112  0.59671482    -0.12500
N489        N  0.86406854  0.91582733  0.58848061     0.64700
H490        H  0.90214917  0.96271761  0.54716290     0.12500
N491        N  0.07946302  0.95641686  0.56983225     0.61300
H492        H  0.04194102  0.90792989  0.61067894     0.08700
O493        O  0.89838451  0.91170289  0.70927765    -0.40200
O494        O  0.82982252  0.87644777  0.69426698    -0.39300
O495        O  0.05631095  0.82555660  0.60775127    -0.39300
O496        O  0.98841510  0.79803480  0.58599327    -0.37000
O497        O  0.10844923  0.93080527  0.55667755    -0.37900
O498        O  0.10072022  0.98445907  0.58519617    -0.34100
O499        O  0.83583394  0.94319032  0.60048759    -0.35500
O500        O  0.84198998  0.88700283  0.57415529    -0.39800
C501        C  0.02136643  0.82115507  0.88217346    -0.13500
C502        C  0.05189484  0.85798697  0.88439705     0.16900
C503        C  0.08959899  0.86742158  0.86338990     0.03200
C504        C  0.09266993  0.84207320  0.83911539    -0.12000
C505        C  0.05843045  0.80757841  0.83560020    -0.03100
C506        C  0.02421819  0.79600161  0.85782515     0.02400
C507        C  0.03976207  0.88796049  0.90732847     0.09300
N508        N  0.12161803  0.90458788  0.86514754     0.65600
H509        H  0.11799970  0.85171414  0.82187397     0.18500
N510        N  0.98894133  0.76094314  0.85496996     0.76100
H511        H  0.99297080  0.81353076  0.89842668     0.10100
C512        C  0.99528415  0.91425499  0.90545124     0.03800
C513        C  0.98201253  0.94033931  0.92842220    -0.05000
C514        C  0.01370231  0.94152804  0.95310702    -0.23400
C515        C  0.05788007  0.91418519  0.95483146     0.13000
C516        C  0.07039077  0.88789212  0.93200741    -0.12500
N517        N  0.96357699  0.91469136  0.88018596     0.64700
H518        H  0.94724527  0.95987645  0.92685348     0.12500
N519        N  0.09087541  0.91263675  0.97956900     0.61300
H520        H  0.10395997  0.86706180  0.93365333     0.08700
O521        O  0.94151745  0.76740736  0.84796936    -0.40200
O522        O  0.00123238  0.72626343  0.86633670    -0.39300
O523        O  0.16849264  0.90162614  0.87408152    -0.39300
O524        O  0.10791556  0.93719589  0.85163997    -0.37000
O525        O  0.13392651  0.93293513  0.47973887    -0.37900
O526        O  0.08510597  0.88251488  0.99690503    -0.34100
O527        O  0.92518738  0.88935065  0.87787442    -0.35500
O528        O  0.98000703  0.93395327  0.85840074    -0.39800
C529        C  0.25932215  0.83574798  0.73637681    -0.13500
C530        C  0.25788924  0.88013803  0.73665099     0.16900
C531        C  0.20849042  0.89996961  0.73433163     0.03200
C532        C  0.16201753  0.87603891  0.73324299    -0.12000
C533        C  0.16270295  0.83178727  0.73480348    -0.03100
C534        C  0.21235679  0.81151214  0.73536502     0.02400
C535        C  0.30781880  0.90556370  0.73872826     0.09300
N536        N  0.20400382  0.94454171  0.73683097     0.65600
H537        H  0.12490981  0.89259871  0.73275872     0.18500
N538        N  0.21610112  0.76659044  0.73586939     0.76100
H539        H  0.29682850  0.81989469  0.73729221     0.10100
C540        C  0.34256850  0.90232207  0.76221879     0.03800
C541        C  0.38928954  0.92647097  0.76312319    -0.05000
C542        C  0.40242944  0.95449417  0.74106239    -0.23400
C543        C  0.36791930  0.95745934  0.71737177     0.13000
C544        C  0.32101887  0.93345333  0.71658387    -0.12500
N545        N  0.33041097  0.87555511  0.78579389     0.64700
H546        H  0.41529809  0.92354104  0.78125288     0.12500
N547        N  0.38133031  0.98222472  0.69298349     0.61300
H548        H  0.29559369  0.93563677  0.69817946     0.08700
O549        O  0.22373310  0.74803054  0.75928719    -0.40200
O550        O  0.22465089  0.74713128  0.71293542    -0.39300
O551        O  0.19461665  0.96619629  0.71483861    -0.39300
O552        O  0.19310720  0.95943077  0.76096587    -0.37000
O553        O  0.41139758  0.96649933  0.67450955    -0.37900
O554        O  0.35171964  0.01236979  0.68589011    -0.34100
O555        O  0.35390963  0.84074510  0.78827895    -0.35500
O556        O  0.30742801  0.89098018  0.80713691    -0.39800
C557        C  0.66199779  0.89627457  0.73780914    -0.13500
C558        C  0.68851004  0.90151711  0.76398073     0.16900
C559        C  0.66939799  0.93213219  0.78321393     0.03200
C560        C  0.62524972  0.95648074  0.77606857    -0.12000
C561        C  0.59867372  0.95101637  0.75006719    -0.03100
C562        C  0.61714102  0.92019187  0.73089987     0.02400
C563        C  0.73853115  0.87772545  0.76946067     0.09300
N564        N  0.69332213  0.93833499  0.81050552     0.65600
H565        H  0.61103410  0.97933405  0.79118984     0.18500
N566        N  0.59223976  0.91377817  0.70387814     0.76100
H567        H  0.67691890  0.87442451  0.72229998     0.10100
C568        C  0.74195864  0.83345144  0.76606492     0.03800
C569        C  0.79108315  0.81325419  0.76802830    -0.05000
C570        C  0.83781051  0.83615364  0.77321642    -0.23400
C571        C  0.83394929  0.88014923  0.77812464     0.13000
C572        C  0.78490830  0.90033632  0.77592740    -0.12500
N573        N  0.69614968  0.80836504  0.76014204     0.64700
H574        H  0.79281331  0.77970078  0.76411026     0.12500
N575        N  0.87920368  0.90504750  0.78557426     0.61300
H576        H  0.78358443  0.93416679  0.77826994     0.08700
O577        O  0.56246743  0.88210564  0.70043489    -0.40200
O578        O  0.61074369  0.93224545  0.68227182    -0.39300
O579        O  0.71997157  0.97147610  0.81495395    -0.39300
O580        O  0.67581677  0.91781395  0.83150630    -0.37000
O581        O  0.90062430  0.92794141  0.76687582    -0.37900
O582        O  0.88781068  0.91312614  0.81148215    -0.34100
O583        O  0.68903274  0.79436500  0.73526273    -0.35500
O584        O  0.67206207  0.79111416  0.78056467    -0.39800
C585        C  0.98679118  0.10197016  0.58621238    -0.13500
C586        C  0.03967152  0.11470702  0.59009533     0.16900
C587        C  0.07912576  0.09550350  0.57336300     0.03200
C588        C  0.06503390  0.06537081  0.55293808    -0.12000
C589        C  0.01223887  0.05359743  0.54875336    -0.03100
C590        C  0.97275096  0.07235046  0.56534171     0.02400
C591        C  0.05290969  0.14441301  0.61367752     0.09300
N592        N  0.13372055  0.10633781  0.57648147     0.65600
H593        H  0.09535074  0.05148329  0.54001264     0.18500
N594        N  0.91821170  0.06254568  0.56093337     0.76100
H595        H  0.95643970  0.11434794  0.59959699     0.10100
C596        C  0.02473610  0.18235156  0.61817690     0.03800
C597        C  0.03189870  0.20494249  0.64351893    -0.05000
C598        C  0.06626213  0.19034601  0.66464046    -0.23400
C599        C  0.09692578  0.15429883  0.65950181     0.13000
C600        C  0.08994378  0.13164165  0.63424939    -0.12500
N601        N  0.98611527  0.19709094  0.59828925     0.64700
H602        H  0.00716782  0.23187440  0.64772854     0.12500
N603        N  0.13134386  0.13776454  0.68093431     0.61300
H604        H  0.11033287  0.10217498  0.63196019     0.08700
O605        O  0.89128068  0.08583124  0.54469990    -0.40200
O606        O  0.89469686  0.03933915  0.57871335    -0.39300
O607        O  0.16437156  0.08040304  0.58837726    -0.39300
O608        O  0.15305513  0.13467575  0.56071814    -0.37000
O609        O  0.18035648  0.14440365  0.67897770    -0.37900
O610        O  0.11492156  0.10870317  0.69706848    -0.34100
O611        O  0.93781720  0.19266035  0.60418409    -0.35500
O612        O  0.99943090  0.22484460  0.58039969    -0.39800
C613        C  0.01125880  0.14064924  0.86815047    -0.13500
C614        C  0.96700948  0.11494781  0.87280813     0.16900
C615        C  0.92070650  0.12160702  0.85650873     0.03200
C616        C  0.92093577  0.15165592  0.83465528    -0.12000
C617        C  0.96728508  0.17372533  0.82813290    -0.03100
C618        C  0.01256052  0.16871434  0.84542224     0.02400
C619        C  0.97007264  0.08342442  0.89593724     0.09300
N620        N  0.87485480  0.09567894  0.86002421     0.65600
H621        H  0.88672867  0.15446774  0.82098195     0.18500
N622        N  0.06146232  0.18941918  0.83893860     0.76100
H623        H  0.04582712  0.13771992  0.88146389     0.10100
C624        C  0.01370945  0.05595800  0.89867926     0.03800
C625        C  0.02123720  0.03331875  0.92389935    -0.05000
C626        C  0.98456698  0.03604041  0.94599221    -0.23400
C627        C  0.93945404  0.06165959  0.94253973     0.13000
C628        C  0.93295258  0.08536186  0.91780458    -0.12500
N629        N  0.05088816  0.05082249  0.87614001     0.64700
H630        H  0.05597402  0.01411325  0.92634464     0.12500
N631        N  0.90070174  0.06526763  0.96443895     0.61300
H632        H  0.90022188  0.10681318  0.91636966     0.08700
O633        O  0.09524058  0.16997764  0.82437642    -0.40200
O634        O  0.07653533  0.22005552  0.85413367    -0.39300
O635        O  0.83402534  0.11139462  0.87095086    -0.39300
O636        O  0.87062711  0.06223147  0.84561064    -0.37000
O637        O  0.85962270  0.04301042  0.46296374    -0.37900
O638        O  0.90123824  0.09740343  0.98029579    -0.34100
O639        O  0.09648857  0.06669843  0.87862521    -0.35500
O640        O  0.04317299  0.02199408  0.85805847    -0.39800
C641        C  0.79696395  0.09402227  0.72879657    -0.13500
C642        C  0.74954263  0.11662626  0.73035378     0.16900
C643        C  0.75259762  0.16130745  0.73088960     0.03200
C644        C  0.80203516  0.18191233  0.73076869    -0.12000
C645        C  0.84951717  0.15913628  0.73000962    -0.03100
C646        C  0.84624374  0.11457174  0.72817966     0.02400
C647        C  0.69824436  0.09288332  0.73357150     0.09300
N648        N  0.70598442  0.18648145  0.73158170     0.65600
H649        H  0.80311852  0.21597388  0.73212053     0.18500
N650        N  0.89250584  0.08933208  0.72561065     0.76100
H651        H  0.79613041  0.05996258  0.72900519     0.10100
C652        C  0.68381151  0.05885752  0.71551976     0.03800
C653        C  0.63681897  0.03624501  0.72025421    -0.05000
C654        C  0.60339906  0.04569926  0.74310609    -0.23400
C655        C  0.61823029  0.07905809  0.76156676     0.13000
C656        C  0.66501671  0.10209456  0.75664940    -0.12500
N657        N  0.71593553  0.04682752  0.69199053     0.64700
H658        H  0.62601320  0.01129537  0.70558839     0.12500
N659        N  0.58794223  0.08862987  0.78630338     0.61300
H660        H  0.67633249  0.12641170  0.77166214     0.08700
O661        O  0.90605465  0.07658560  0.70128370    -0.40200
O662        O  0.91110688  0.07145665  0.74743921    -0.39300
O663        O  0.69346557  0.20461765  0.75447096    -0.39300
O664        O  0.68647440  0.19942704  0.70843096    -0.37000
O665        O  0.59960365  0.07099838  0.80957281    -0.37900
O666        O  0.56059091  0.12177883  0.78665088    -0.34100
O667        O  0.74258774  0.01338982  0.69377818    -0.35500
O668        O  0.70589617  0.06185841  0.66769915    -0.39800
C669        C  0.33525661  0.07466756  0.78074285    -0.13500
C670        C  0.31712745  0.10023546  0.75832874     0.16900
C671        C  0.34545821  0.10040714  0.73244204     0.03200
C672        C  0.39034069  0.07514845  0.72940319    -0.12000
C673        C  0.40708424  0.04851538  0.75141407    -0.03100
C674        C  0.37977333  0.04900454  0.77752487     0.02400
C675        C  0.26890326  0.12641932  0.76246674     0.09300
N676        N  0.32841501  0.12496247  0.70863259     0.65600
H677        H  0.41177919  0.07583506  0.70960926     0.18500
N678        N  0.39854060  0.02580995  0.80158562     0.76100
H679        H  0.31553867  0.07530654  0.80101804     0.10100
C680        C  0.22109115  0.10819096  0.77180277     0.03800
C681        C  0.17523420  0.13228220  0.77291421    -0.05000
C682        C  0.17543291  0.17491251  0.76506965    -0.23400
C683        C  0.22397535  0.19434926  0.75810935     0.13000
C684        C  0.27020229  0.17001976  0.75684000    -0.12500
N685        N  0.21652914  0.06401899  0.77677241     0.64700
H686        H  0.13849698  0.11678214  0.77830087     0.12500
N687        N  0.22667972  0.23793570  0.75053929     0.61300
H688        H  0.30680759  0.18502004  0.75081633     0.08700
O689        O  0.37237190  0.99437208  0.81025650    -0.40200
O690        O  0.43132286  0.04317364  0.81822733    -0.39300
O691        O  0.35372742  0.15799883  0.70216983    -0.39300
O692        O  0.29819292  0.10828520  0.69035939    -0.37000
O693        O  0.24081915  0.26451435  0.76909426    -0.37900
O694        O  0.22780940  0.24815788  0.72458162    -0.34100
O695        O  0.21268036  0.05068883  0.80201360    -0.35500
O696        O  0.20035578  0.04113887  0.75659696    -0.39800
C697        C  0.93526439  0.38227629  0.64844161    -0.13500
C698        C  0.97894641  0.38059333  0.62989072     0.16900
C699        C  0.02251727  0.35580917  0.63811022     0.03200
C700        C  0.02221376  0.33427310  0.66406289    -0.12000
C701        C  0.97930159  0.33616942  0.68305647    -0.03100
C702        C  0.93500721  0.36025886  0.67474781     0.02400
C703        C  0.98059339  0.40661085  0.60307090     0.09300
N704        N  0.06750604  0.35116597  0.62011293     0.65600
H705        H  0.05626865  0.31532654  0.66908893     0.18500
N706        N  0.89048735  0.36436576  0.69302460     0.76100
H707        H  0.90193490  0.40162876  0.64292713     0.10100
C708        C  0.94184503  0.40332991  0.58142022     0.03800
C709        C  0.94652431  0.42734750  0.55626205    -0.05000
C710        C  0.98926275  0.45517776  0.55196636    -0.23400
C711        C  0.02850970  0.45786332  0.57340491     0.13000
C712        C  0.02315009  0.43457547  0.59875953    -0.12500
N713        N  0.89791156  0.37520480  0.58427759     0.64700
H714        H  0.91629478  0.42457986  0.54011178     0.12500
N715        N  0.07601394  0.48154627  0.56916130     0.61300
H716        H  0.05313214  0.43776303  0.61495597     0.08700
O717        O  0.84938724  0.34298218  0.68784459    -0.40200
O718        O  0.88735886  0.39630727  0.70893992    -0.39300
O719        O  0.10976929  0.37027912  0.62653112    -0.39300
O720        O  0.06958484  0.31971980  0.60370345    -0.37000
O721        O  0.11158408  0.46597535  0.55372772    -0.37900
O722        O  0.08857042  0.50973458  0.58694247    -0.34100
O723        O  0.85354903  0.38985055  0.59115541    -0.35500
O724        O  0.90024503  0.33894616  0.57329179    -0.39800
C725        C  0.99498178  0.34787402  0.86556483    -0.13500
C726        C  0.01929544  0.38766308  0.86591851     0.16900
C727        C  0.04960383  0.39944759  0.84170017     0.03200
C728        C  0.05156583  0.37272088  0.81756003    -0.12000
C729        C  0.02253792  0.33480393  0.81654758    -0.03100
C730        C  0.99430870  0.32253147  0.84121816     0.02400
C731        C  0.01247305  0.41459869  0.89219492     0.09300
N732        N  0.07723997  0.43884143  0.84060166     0.65600
H733        H  0.07368179  0.38264715  0.79913473     0.18500
N734        N  0.96390183  0.28443307  0.84228409     0.76100
H735        H  0.97523919  0.33635715  0.88426439     0.10100
C736        C  0.96296376  0.41750093  0.90630027     0.03800
C737        C  0.95916775  0.43750124  0.93287337    -0.05000
C738        C  0.00270828  0.45772931  0.94533355    -0.23400
C739        C  0.05179397  0.45575125  0.93129304     0.13000
C740        C  0.05647010  0.43386611  0.90531409    -0.12500
N741        N  0.91534332  0.40182493  0.89355906     0.64700
H742        H  0.92127399  0.43871291  0.94333631     0.12500
N743        N  0.09786283  0.47460880  0.94353597     0.61300
H744        H  0.09504957  0.43088563  0.89600460     0.08700
O745        O  0.91680434  0.28526921  0.83344489    -0.40200
O746        O  0.97643184  0.25684940  0.86041462    -0.39300
O747        O  0.12677881  0.43912847  0.84363187    -0.39300
O748        O  0.05523713  0.47004983  0.82893942    -0.37000
O749        O  0.12724145  0.45255687  0.95931343    -0.37900
O750        O  0.11621090  0.50793471  0.93261230    -0.34100
O751        O  0.89291547  0.36988848  0.90424021    -0.35500
O752        O  0.88883419  0.42608228  0.87778543    -0.39800
C753        C  0.95423714  0.57499296  0.59794582    -0.13500
C754        C  0.99941472  0.60032604  0.60200292     0.16900
C755        C  0.03796461  0.60126652  0.58045949     0.03200
C756        C  0.03085676  0.57744853  0.55553250    -0.12000
C757        C  0.98642085  0.55129680  0.55168241    -0.03100
C758        C  0.94729044  0.55070053  0.57309739     0.02400
C759        C  0.00491533  0.62575043  0.62868426     0.09300
N760        N  0.08484018  0.62611475  0.58350230     0.65600
H761        H  0.06097944  0.57849335  0.53938932     0.18500
N762        N  0.89918888  0.52743645  0.56961832     0.76100
H763        H  0.92414432  0.57419643  0.61408615     0.10100
C764        C  0.96802596  0.65722726  0.63542135     0.03800
C765        C  0.97137360  0.67856305  0.66138913    -0.05000
C766        C  0.01088947  0.66951014  0.68162282    -0.23400
C767        C  0.04876560  0.63853735  0.67474197     0.13000
C768        C  0.04545161  0.61701683  0.64842699    -0.12500
N769        N  0.92703691  0.66857848  0.61593067     0.64700
H770        H  0.94250289  0.70271106  0.66563412     0.12500
N771        N  0.08900603  0.62682908  0.69456536     0.61300
H772        H  0.07362891  0.59257411  0.64377930     0.08700
O773        O  0.88958762  0.49718981  0.58633357    -0.40200
O774        O  0.86113151  0.54480567  0.55685520    -0.39300
O775        O  0.12717296  0.60829790  0.59087257    -0.39300
O776        O  0.08694834  0.66207693  0.57200832    -0.37000
O777        O  0.08114444  0.59568432  0.71079509    -0.37900
O778        O  0.13564637  0.63966084  0.69059337    -0.34100
O779        O  0.88030466  0.65683970  0.62096078    -0.35500
O780        O  0.93477667  0.69892141  0.59901708    -0.39800
C781        C  0.00129469  0.60704204  0.91232641    -0.13500
C782        C  0.96302169  0.59363841  0.89266241     0.16900
C783        C  0.93105802  0.55862002  0.89935247     0.03200
C784        C  0.93735158  0.53798357  0.92565498    -0.12000
C785        C  0.97723449  0.55015191  0.94510082    -0.03100
C786        C  0.00880377  0.58575339  0.93825562     0.02400
C787        C  0.96117373  0.61376160  0.86411213     0.09300
N788        N  0.89440562  0.54225452  0.87887499     0.65600
H789        H  0.91098322  0.51201232  0.93078977     0.18500
N790        N  0.04974294  0.60016526  0.95692994     0.76100
H791        H  0.02664289  0.63368125  0.90713315     0.10100
C792        C  0.92409821  0.64511208  0.85692488     0.03800
C793        C  0.92677788  0.66520486  0.83028403    -0.05000
C794        C  0.96727876  0.65582772  0.81099698    -0.23400
C795        C  0.00296706  0.62313803  0.81786766     0.13000
C796        C  0.99927265  0.60228882  0.84410431    -0.12500
N797        N  0.88631025  0.65939500  0.87719227     0.64700
H798        H  0.89968764  0.69057017  0.82566771     0.12500
N799        N  0.04361172  0.61087164  0.79862293     0.61300
H800        H  0.02736363  0.57783152  0.84925521     0.08700
O801        O  0.04160630  0.63225114  0.97213938    -0.42400
O802        O  0.09669262  0.58936707  0.95208795    -0.39300
O803        O  0.91055854  0.51779046  0.85964154    -0.39300
O804        O  0.84897283  0.55807804  0.87680042    -0.37000
O805        O  0.09051756  0.62255037  0.80344997    -0.37900
O806        O  0.03530470  0.58018942  0.78205701    -0.34100
O807        O  0.89984415  0.68720427  0.89505069    -0.35500
O808        O  0.83785595  0.65265303  0.87267240    -0.39800
loop_ 
_geom_bond_atom_site_label_1 
_geom_bond_atom_site_label_2 
_geom_bond_distance 
_geom_bond_site_symmetry_2 
_ccdc_geom_bond_type 
C1            C2   1.421       .  A
C1            C6   1.414       .  A
C1          C334   1.498   1_655  S
C2          C407   1.412       .  A
C2          C381   1.506       .  S
C3            C4   1.414   1_556  A
C3          C406   1.412       .  A
C3          H412   1.086       .  S
C4            C5   1.422       .  A
C4          C353   1.497       .  S
C5          C410   1.415   1_554  A
C5          C306   1.504       .  S
C6          C409   1.415       .  A
C6          H411   1.086   1_655  S
H7          C410   1.086   1_455  S
H8          C407   1.086       .  S
O9           C24   1.254   1_655  A
O9          Al17   1.881       .  S
C10         C194   1.459       .  S
C10          O20   1.269       .  A
C10          O11   1.285       .  A
O11         Al13   1.974       .  S
O12          C14   1.255   1_455  A
O12         Al13   1.860       .  S
Al13         O21   1.915       .  S
Al13         O23   1.949       .  S
Al13         O22   1.783       .  S
C14         C297   1.505       .  S
C14          O27   1.270       .  A
O15          C25   1.254       .  A
O15         Al17   1.916       .  S
O16          C29   1.264   1_455  A
O16         Al26   1.838       .  S
Al17         O30   1.972       .  S
Al17         O27   1.967       .  S
Al17         O22   1.783   1_655  S
O18          C25   1.251       .  A
O18         Al26   1.916   1_655  S
O19          C28   1.250       .  A
O19         Al26   1.889       .  S
O20         Al26   1.853       .  S
O21          C28   1.252       .  A
O22         Al26   1.776       .  S
O23          C24   1.268       .  A
C24         C325   1.497       .  S
C25         C241   1.501       .  S
C28         C278   1.481       .  S
C29         C213   1.457       .  S
C29          O30   1.285       .  A
C31          C32   1.418   1_565  A
C31          C36   1.409       .  A
C31         C138   1.498       .  S
C32          C33   1.408       .  A
C32         C269   1.486       .  S
C33          C34   1.407       .  A
C33          H38   1.085       .  S
C34          C35   1.422   1_545  A
C34         C250   1.504       .  S
C35          C36   1.410       .  A
C35         C157   1.493       .  S
C36          H37   1.085       .  S
O39          C54   1.258   1_655  A
O39         Al47   1.877       .  S
C40         C101   1.457       .  S
C40          O50   1.267       .  A
C40          O41   1.280       .  A
O41         Al43   1.956       .  S
O42          C44   1.255   1_455  A
O42         Al43   1.886       .  S
Al43         O51   1.925       .  S
Al43         O53   1.945       .  S
Al43         O52   1.804   1_455  S
C44         C390   1.486       .  S
C44          O57   1.262       .  A
O45          C55   1.255       .  A
O45         Al47   1.917       .  S
O46          C59   1.269       .  A
O46         Al56   1.869   1_655  S
Al47         O60   1.946       .  S
Al47         O57   1.916       .  S
Al47         O52   1.783       .  S
O48          C55   1.248       .  A
O48         Al56   1.901   1_655  S
O49          C58   1.251       .  A
O49         Al56   1.887       .  S
O50         Al56   1.860       .  S
O51          C58   1.254       .  A
O52         Al56   1.781   1_655  S
O53          C54   1.267       .  A
C54         C362   1.497       .  S
C55         C166   1.494       .  S
C58         C129   1.496       .  S
C59          C73   1.455       .  S
C59          O60   1.276       .  A
C61          C62   1.421   1_465  A
C61          C66   1.401   1_455  A
C61         C110   1.495       .  S
C62          C63   1.403       .  A
C62         C222   1.476       .  S
C63         C468   1.393   1_655  A
C63          H68   1.085       .  S
C64          C65   1.404   1_545  A
C64         C467   1.392   1_554  A
C64         C185   1.475   1_655  S
C65         C470   1.400       .  A
C65          C82   1.464       .  S
C66         C469   1.400       .  A
C66          H67   1.084       .  S
C69          C70   1.401       .  A
C69          C74   1.396       .  A
C69          H79   1.076       .  S
C70          C71   1.414       .  A
C70          C75   1.477       .  S
C71          C72   1.395       .  A
C71          N76   1.429   1_655  S
C72          C73   1.395       .  A
C72          H77   1.079       .  S
C73          C74   1.407       .  A
C74          N78   1.428       .  S
C75          C80   1.410       .  A
C75          C84   1.405   1_655  A
N76          O91   1.262       .  A
N76          O92   1.261   1_455  A
N78          O89   1.261       .  A
N78          O90   1.262       .  A
C80          C81   1.394       .  A
C80          N85   1.429       .  S
C81          C82   1.399       .  A
C81          H86   1.078       .  S
C82          C83   1.404   1_655  A
C83          C84   1.397       .  A
C83          N87   1.428       .  S
C84          H88   1.076       .  S
N85          O95   1.262       .  A
N85          O96   1.261       .  A
N87          O93   1.262       .  A
N87          O94   1.262       .  A
C97          C98   1.400       .  A
C97         C102   1.397       .  A
C97         H107   1.078   1_455  S
C98          C99   1.407       .  A
C98         C103   1.471       .  S
C99         C100   1.398       .  A
C99         N104   1.428       .  S
C100        C101   1.401       .  A
C100        H105   1.078       .  S
C101        C102   1.407       .  A
C102        N106   1.427   1_455  S
C103        C108   1.408   1_455  A
C103        C112   1.392       .  A
N104        O119   1.262       .  A
N104        O120   1.262       .  A
N106        O117   1.262       .  A
N106        O118   1.261   1_655  A
C108        C109   1.403       .  A
C108        N113   1.430       .  S
C109        C110   1.408   1_655  A
C109        H114   1.082       .  S
C110        C111   1.421       .  A
C111        C112   1.397       .  A
C111        N115   1.429       .  S
C112        H116   1.082       .  S
N113        O123   1.262       .  A
N113        O124   1.262       .  A
N115        O122   1.262       .  A
N115        O525   1.261       .  A
O121        N519   1.261       .  A
C125        C126   1.407       .  A
C125        C130   1.413       .  A
C125        H135   1.078       .  S
C126        C127   1.407       .  A
C126        C131   1.499       .  S
C127        C128   1.397       .  A
C127        N132   1.423       .  S
C128        C129   1.404       .  A
C128        H133   1.079       .  S
C129        C130   1.416       .  A
C130        N134   1.427       .  S
C131        C136   1.412       .  A
C131        C140   1.405       .  A
N132        O147   1.262       .  A
N132        O148   1.261       .  A
N134        O145   1.262       .  A
N134        O146   1.262       .  A
C136        C137   1.406       .  A
C136        N141   1.428       .  S
C137        C138   1.404       .  A
C137        H142   1.079       .  S
C138        C139   1.415       .  A
C139        C140   1.407       .  A
C139        N143   1.429       .  S
C140        H144   1.078       .  S
N141        O151   1.262       .  A
N141        O152   1.262       .  A
N143        O149   1.262       .  A
N143        O150   1.262   1_565  A
C153        C154   1.408       .  A
C153        C158   1.406       .  A
C153        H163   1.077       .  S
C154        C155   1.415       .  A
C154        C159   1.500       .  S
C155        C156   1.402       .  A
C155        N160   1.429       .  S
C156        C157   1.402       .  A
C156        H161   1.079       .  S
C157        C158   1.412       .  A
C158        N162   1.429       .  S
C159        C164   1.415       .  A
C159        C168   1.405       .  A
N160        O175   1.262       .  A
N160        O176   1.262       .  A
N162        O173   1.262       .  A
N162        O174   1.262       .  A
C164        C165   1.405       .  A
C164        N169   1.429       .  S
C165        C166   1.405       .  A
C165        H170   1.080       .  S
C166        C167   1.417       .  A
C167        C168   1.404       .  A
C167        N171   1.430       .  S
C168        H172   1.078       .  S
N169        O179   1.262       .  A
N169        O180   1.262       .  A
N171        O177   1.261       .  A
N171        O178   1.261       .  A
C181        C182   1.408   1_655  A
C181        C186   1.401       .  A
C181        H191   1.072       .  S
C182        C183   1.415       .  A
C182        C187   1.490       .  S
C183        C184   1.398       .  A
C183        N188   1.430       .  S
C184        C185   1.399       .  A
C184        H189   1.077       .  S
C185        C186   1.405   1_455  A
C186        N190   1.428       .  S
C187        C192   1.418       .  A
C187        C196   1.405       .  A
N188        O203   1.262       .  A
N188        O204   1.261       .  A
N190        O201   1.262       .  A
N190        O202   1.261       .  A
C192        C193   1.400       .  A
C192        N197   1.430   1_455  S
C193        C194   1.397       .  A
C193        H198   1.081       .  S
C194        C195   1.407       .  A
C195        C196   1.397       .  A
C195        N199   1.430       .  S
C196        H200   1.075       .  S
N197        O207   1.262       .  A
N197        O208   1.261       .  A
N199        O205   1.262       .  A
N199        O206   1.262       .  A
C209        C210   1.399   1_455  A
C209        C214   1.389       .  A
C209        H219   1.078       .  S
C210        C211   1.415       .  A
C210        C215   1.477       .  S
C211        C212   1.400       .  A
C211        N216   1.429       .  S
C212        C213   1.398       .  A
C212        H217   1.080       .  S
C213        C214   1.412   1_655  A
C214        N218   1.432       .  S
C215        C220   1.416   1_655  A
C215        C224   1.397       .  A
N216        O231   1.262       .  A
N216        O232   1.262       .  A
N218        O229   1.262       .  A
N218        O230   1.262       .  A
C220        C221   1.397       .  A
C220        N225   1.430       .  S
C221        C222   1.399   1_455  A
C221        H226   1.078       .  S
C222        C223   1.414       .  A
C223        C224   1.393       .  A
C223        N227   1.430       .  S
C224        H228   1.077       .  S
N225        O235   1.262       .  A
N225        O236   1.262       .  A
N227        O234   1.262       .  A
N227        O637   1.261       .  A
O233        N631   1.261       .  A
C237        C238   1.404       .  A
C237        C242   1.405       .  A
C237        H247   1.079       .  S
C238        C239   1.418       .  A
C238        C243   1.506       .  S
C239        C240   1.409       .  A
C239        N244   1.429       .  S
C240        C241   1.407       .  A
C240        H245   1.081       .  S
C241        C242   1.417       .  A
C242        N246   1.428       .  S
C243        C248   1.417       .  A
C243        C252   1.407       .  A
N244        O259   1.262       .  A
N244        O260   1.262       .  A
N246        O257   1.262       .  A
N246        O258   1.262       .  A
C248        C249   1.404       .  A
C248        N253   1.429       .  S
C249        C250   1.404       .  A
C249        H254   1.082       .  S
C250        C251   1.416       .  A
C251        C252   1.408       .  A
C251        N255   1.429       .  S
C252        H256   1.081       .  S
N253        O263   1.262       .  A
N253        O264   1.261       .  A
N255        O261   1.262       .  A
N255        O262   1.262       .  A
C265        C266   1.405       .  A
C265        C270   1.403       .  A
C265        H275   1.078       .  S
C266        C267   1.415       .  A
C266        C271   1.494       .  S
C267        C268   1.402       .  A
C267        N272   1.429       .  S
C268        C269   1.400       .  A
C268        H273   1.079       .  S
C269        C270   1.411       .  A
C270        N274   1.429       .  S
C271        C276   1.410       .  A
C271        C280   1.407       .  A
N272        O287   1.262       .  A
N272        O288   1.262       .  A
N274        O285   1.262   1_545  A
N274        O286   1.262       .  A
C276        C277   1.395       .  A
C276        N281   1.423       .  S
C277        C278   1.400       .  A
C277        H282   1.081       .  S
C278        C279   1.411       .  A
C279        C280   1.407       .  A
C279        N283   1.427       .  S
C280        H284   1.078       .  S
N281        O291   1.262       .  A
N281        O292   1.259       .  A
N283        O289   1.262       .  A
N283        O290   1.262       .  A
C293        C294   1.413       .  A
C293        C298   1.419       .  A
C293        H303   1.077       .  S
C294        C295   1.411   1_655  A
C294        C299   1.506       .  S
C295        C296   1.397       .  A
C295        N300   1.430       .  S
C296        C297   1.411   1_455  A
C296        H301   1.079       .  S
C297        C298   1.414       .  A
C298        N302   1.427       .  S
C299        C304   1.414       .  A
C299        C308   1.407   1_655  A
N300        O315   1.262       .  A
N300        O316   1.262       .  A
N302        O313   1.262       .  A
N302        O314   1.262       .  A
C304        C305   1.410       .  A
C304        N309   1.428       .  S
C305        C306   1.407       .  A
C305        H310   1.079       .  S
C306        C307   1.414   1_655  A
C307        C308   1.407       .  A
C307        N311   1.429       .  S
C308        H312   1.077       .  S
N309        O319   1.262       .  A
N309        O320   1.262       .  A
N311        O317   1.262       .  A
N311        O318   1.262       .  A
C321        C322   1.400   1_655  A
C321        C326   1.398       .  A
C321        H331   1.075       .  S
C322        C323   1.424       .  A
C322        C327   1.512       .  S
C323        C324   1.417       .  A
C323        N328   1.428       .  S
C324        C325   1.406       .  A
C324        H329   1.079       .  S
C325        C326   1.417   1_455  A
C326        N330   1.429       .  S
C327        C332   1.424   1_455  A
C327        C336   1.407       .  A
N328        O343   1.262       .  A
N328        O344   1.262       .  A
N330        O341   1.262       .  A
N330        O342   1.261       .  A
C332        C333   1.404       .  A
C332        N337   1.431       .  S
C333        C334   1.399   1_655  A
C333        H338   1.081       .  S
C334        C335   1.412       .  A
C335        C336   1.410       .  A
C335        N339   1.427       .  S
C336        H340   1.077       .  S
N337        O347   1.262       .  A
N337        O348   1.262       .  A
N339        O345   1.262       .  A
N339        O346   1.261       .  A
C349        C350   1.406       .  A
C349        C354   1.408       .  A
C349        H359   1.078       .  S
C350        C351   1.410   1_655  A
C350        C355   1.496   1_655  S
C351        C352   1.404       .  A
C351        N356   1.427       .  S
C352        C353   1.405   1_455  A
C352        H357   1.078       .  S
C353        C354   1.415       .  A
C354        N358   1.429       .  S
C355        C360   1.408   1_455  A
C355        C364   1.409       .  A
N356        O371   1.262       .  A
N356        O372   1.262       .  A
N358        O369   1.262       .  A
N358        O370   1.262       .  A
C360        C361   1.397       .  A
C360        N365   1.429       .  S
C361        C362   1.408   1_655  A
C361        H366   1.081       .  S
C362        C363   1.415       .  A
C363        C364   1.414       .  A
C363        N367   1.428       .  S
C364        H368   1.079       .  S
N365        O375   1.262       .  A
N365        O376   1.262       .  A
N367        O373   1.262       .  A
N367        O374   1.262       .  A
C377        C378   1.400   1_455  A
C377        C382   1.405       .  A
C377        H387   1.086       .  S
C378        C379   1.406       .  A
C378        C383   1.485       .  S
C379        C380   1.406       .  A
C379        N384   1.429       .  S
C380        C381   1.411       .  A
C380        H385   1.084       .  S
C381        C382   1.416   1_655  A
C382        N386   1.428       .  S
C383        C388   1.411       .  A
C383        C392   1.400       .  A
N384        O399   1.262       .  A
N384        O400   1.261       .  A
N386        O397   1.262       .  A
N386        O398   1.261       .  A
C388        C389   1.405       .  A
C388        N393   1.429       .  S
C389        C390   1.405       .  A
C389        H394   1.081       .  S
C390        C391   1.415   1_655  A
C391        C392   1.401   1_455  A
C391        N395   1.429       .  S
C392        H396   1.082   1_655  S
N393        O403   1.262       .  A
N393        O404   1.262       .  A
N395        O401   1.262       .  A
N395        O402   1.262       .  A
C405        C406   1.421       .  A
C405        C410   1.414       .  A
C405        C738   1.498   1_655  S
C406        C785   1.506       .  S
C407        C408   1.414       .  A
C408        C409   1.422       .  A
C408        C757   1.497       .  S
C409        C710   1.504       .  S
O413        C428   1.254   1_655  A
O413       Al421   1.881       .  S
C414        C598   1.459       .  S
C414        O424   1.269       .  A
C414        O415   1.285       .  A
O415       Al417   1.975       .  S
O416        C418   1.255   1_455  A
O416       Al417   1.861       .  S
Al417       O425   1.915       .  S
Al417       O427   1.950       .  S
Al417       O426   1.783       .  S
C418        C701   1.505       .  S
C418        O431   1.270       .  A
O419        C429   1.254       .  A
O419       Al421   1.916       .  S
O420        C433   1.264   1_455  A
O420       Al430   1.838       .  S
Al421       O434   1.972       .  S
Al421       O431   1.967       .  S
Al421       O426   1.783   1_655  S
O422        C429   1.251       .  A
O422       Al430   1.916   1_655  S
O423        C432   1.250       .  A
O423       Al430   1.889       .  S
O424       Al430   1.853       .  S
O425        C432   1.252       .  A
O426       Al430   1.776       .  S
O427        C428   1.268       .  A
C428        C729   1.497       .  S
C429        C645   1.501       .  S
C432        C682   1.481       .  S
C433        C617   1.457       .  S
C433        O434   1.285       .  A
C435        C436   1.418   1_565  A
C435        C440   1.409       .  A
C435        C542   1.498       .  S
C436        C437   1.408       .  A
C436        C673   1.486       .  S
C437        C438   1.407       .  A
C437        H442   1.085       .  S
C438        C439   1.422   1_545  A
C438        C654   1.504       .  S
C439        C440   1.410       .  A
C439        C561   1.493       .  S
C440        H441   1.085       .  S
O443        C458   1.258   1_655  A
O443       Al451   1.877       .  S
C444        C505   1.457       .  S
C444        O454   1.267       .  A
C444        O445   1.280       .  A
O445       Al447   1.956       .  S
O446        C448   1.255   1_455  A
O446       Al447   1.886       .  S
Al447       O455   1.925       .  S
Al447       O457   1.945       .  S
Al447       O456   1.804   1_455  S
C448        C794   1.485       .  S
C448        O461   1.262       .  A
O449        C459   1.255       .  A
O449       Al451   1.917       .  S
O450        C463   1.269       .  A
O450       Al460   1.869   1_655  S
Al451       O464   1.946       .  S
Al451       O461   1.916       .  S
Al451       O456   1.783       .  S
O452        C459   1.248       .  A
O452       Al460   1.901   1_655  S
O453        C462   1.251       .  A
O453       Al460   1.887       .  S
O454       Al460   1.860       .  S
O455        C462   1.254       .  A
O456       Al460   1.781   1_655  S
O457        C458   1.267       .  A
C458        C766   1.497       .  S
C459        C570   1.494       .  S
C462        C533   1.496       .  S
C463        C477   1.455       .  S
C463        O464   1.276       .  A
C465        C466   1.421   1_465  A
C465        C470   1.401   1_456  A
C465        C514   1.496       .  S
C466        C467   1.403       .  A
C466        C626   1.476       .  S
C467        H472   1.085       .  S
C468        C469   1.404   1_445  A
C468        C589   1.475       .  S
C469        C486   1.464       .  S
C470        H471   1.084       .  S
C473        C474   1.401       .  A
C473        C478   1.396       .  A
C473        H483   1.076       .  S
C474        C475   1.414       .  A
C474        C479   1.477       .  S
C475        C476   1.395       .  A
C475        N480   1.429   1_655  S
C476        C477   1.395       .  A
C476        H481   1.079       .  S
C477        C478   1.407       .  A
C478        N482   1.428       .  S
C479        C484   1.410       .  A
C479        C488   1.406   1_655  A
N480        O495   1.262       .  A
N480        O496   1.261   1_455  A
N482        O493   1.261       .  A
N482        O494   1.262       .  A
C484        C485   1.394       .  A
C484        N489   1.429       .  S
C485        C486   1.399       .  A
C485        H490   1.078       .  S
C486        C487   1.404   1_655  A
C487        C488   1.397       .  A
C487        N491   1.428       .  S
C488        H492   1.076       .  S
N489        O499   1.262       .  A
N489        O500   1.261       .  A
N491        O497   1.262       .  A
N491        O498   1.262       .  A
C501        C502   1.400       .  A
C501        C506   1.397       .  A
C501        H511   1.077   1_455  S
C502        C503   1.407       .  A
C502        C507   1.471       .  S
C503        C504   1.398       .  A
C503        N508   1.428       .  S
C504        C505   1.401       .  A
C504        H509   1.078       .  S
C505        C506   1.407       .  A
C506        N510   1.427   1_455  S
C507        C512   1.408   1_455  A
C507        C516   1.392       .  A
N508        O523   1.262       .  A
N508        O524   1.262       .  A
N510        O521   1.262       .  A
N510        O522   1.261   1_655  A
C512        C513   1.403       .  A
C512        N517   1.430       .  S
C513        C514   1.408   1_655  A
C513        H518   1.082       .  S
C514        C515   1.421       .  A
C515        C516   1.397       .  A
C515        N519   1.429       .  S
C516        H520   1.082       .  S
N517        O527   1.262       .  A
N517        O528   1.262       .  A
N519        O526   1.262       .  A
C529        C530   1.407       .  A
C529        C534   1.413       .  A
C529        H539   1.078       .  S
C530        C531   1.407       .  A
C530        C535   1.498       .  S
C531        C532   1.397       .  A
C531        N536   1.423       .  S
C532        C533   1.404       .  A
C532        H537   1.079       .  S
C533        C534   1.416       .  A
C534        N538   1.427       .  S
C535        C540   1.412       .  A
C535        C544   1.405       .  A
N536        O551   1.262       .  A
N536        O552   1.261       .  A
N538        O549   1.262       .  A
N538        O550   1.262       .  A
C540        C541   1.406       .  A
C540        N545   1.428       .  S
C541        C542   1.404       .  A
C541        H546   1.079       .  S
C542        C543   1.415       .  A
C543        C544   1.407       .  A
C543        N547   1.429       .  S
C544        H548   1.078       .  S
N545        O555   1.262       .  A
N545        O556   1.262       .  A
N547        O553   1.262       .  A
N547        O554   1.262   1_565  A
C557        C558   1.408       .  A
C557        C562   1.406       .  A
C557        H567   1.077       .  S
C558        C559   1.415       .  A
C558        C563   1.499       .  S
C559        C560   1.402       .  A
C559        N564   1.429       .  S
C560        C561   1.402       .  A
C560        H565   1.079       .  S
C561        C562   1.412       .  A
C562        N566   1.429       .  S
C563        C568   1.415       .  A
C563        C572   1.404       .  A
N564        O579   1.262       .  A
N564        O580   1.262       .  A
N566        O577   1.262       .  A
N566        O578   1.262       .  A
C568        C569   1.405       .  A
C568        N573   1.429       .  S
C569        C570   1.405       .  A
C569        H574   1.080       .  S
C570        C571   1.417       .  A
C571        C572   1.404       .  A
C571        N575   1.430       .  S
C572        H576   1.078       .  S
N573        O583   1.262       .  A
N573        O584   1.262       .  A
N575        O581   1.261       .  A
N575        O582   1.261       .  A
C585        C586   1.408   1_655  A
C585        C590   1.401       .  A
C585        H595   1.072       .  S
C586        C587   1.415       .  A
C586        C591   1.490       .  S
C587        C588   1.398       .  A
C587        N592   1.430       .  S
C588        C589   1.399       .  A
C588        H593   1.077       .  S
C589        C590   1.406   1_455  A
C590        N594   1.428       .  S
C591        C596   1.418       .  A
C591        C600   1.405       .  A
N592        O607   1.262       .  A
N592        O608   1.261       .  A
N594        O605   1.262       .  A
N594        O606   1.261       .  A
C596        C597   1.400       .  A
C596        N601   1.430   1_455  S
C597        C598   1.397       .  A
C597        H602   1.081       .  S
C598        C599   1.407       .  A
C599        C600   1.397       .  A
C599        N603   1.430       .  S
C600        H604   1.075       .  S
N601        O611   1.262       .  A
N601        O612   1.261       .  A
N603        O609   1.262       .  A
N603        O610   1.262       .  A
C613        C614   1.399   1_455  A
C613        C618   1.389       .  A
C613        H623   1.078       .  S
C614        C615   1.415       .  A
C614        C619   1.477       .  S
C615        C616   1.400       .  A
C615        N620   1.429       .  S
C616        C617   1.398       .  A
C616        H621   1.080       .  S
C617        C618   1.412   1_655  A
C618        N622   1.432       .  S
C619        C624   1.416   1_655  A
C619        C628   1.397       .  A
N620        O635   1.262       .  A
N620        O636   1.262       .  A
N622        O633   1.262       .  A
N622        O634   1.262       .  A
C624        C625   1.397       .  A
C624        N629   1.430       .  S
C625        C626   1.399   1_455  A
C625        H630   1.079       .  S
C626        C627   1.414       .  A
C627        C628   1.393       .  A
C627        N631   1.430       .  S
C628        H632   1.077       .  S
N629        O639   1.262       .  A
N629        O640   1.262       .  A
N631        O638   1.262       .  A
C641        C642   1.404       .  A
C641        C646   1.405       .  A
C641        H651   1.079       .  S
C642        C643   1.418       .  A
C642        C647   1.506       .  S
C643        C644   1.409       .  A
C643        N648   1.429       .  S
C644        C645   1.407       .  A
C644        H649   1.081       .  S
C645        C646   1.417       .  A
C646        N650   1.428       .  S
C647        C652   1.417       .  A
C647        C656   1.407       .  A
N648        O663   1.262       .  A
N648        O664   1.262       .  A
N650        O661   1.262       .  A
N650        O662   1.262       .  A
C652        C653   1.404       .  A
C652        N657   1.429       .  S
C653        C654   1.404       .  A
C653        H658   1.082       .  S
C654        C655   1.416       .  A
C655        C656   1.408       .  A
C655        N659   1.429       .  S
C656        H660   1.081       .  S
N657        O667   1.262       .  A
N657        O668   1.261       .  A
N659        O665   1.262       .  A
N659        O666   1.262       .  A
C669        C670   1.405       .  A
C669        C674   1.403       .  A
C669        H679   1.078       .  S
C670        C671   1.415       .  A
C670        C675   1.494       .  S
C671        C672   1.402       .  A
C671        N676   1.429       .  S
C672        C673   1.400       .  A
C672        H677   1.079       .  S
C673        C674   1.411       .  A
C674        N678   1.429       .  S
C675        C680   1.410       .  A
C675        C684   1.407       .  A
N676        O691   1.262       .  A
N676        O692   1.262       .  A
N678        O689   1.262   1_545  A
N678        O690   1.262       .  A
C680        C681   1.395       .  A
C680        N685   1.423       .  S
C681        C682   1.400       .  A
C681        H686   1.081       .  S
C682        C683   1.411       .  A
C683        C684   1.407       .  A
C683        N687   1.427       .  S
C684        H688   1.078       .  S
N685        O695   1.262       .  A
N685        O696   1.259       .  A
N687        O693   1.262       .  A
N687        O694   1.262       .  A
C697        C698   1.413       .  A
C697        C702   1.419       .  A
C697        H707   1.077       .  S
C698        C699   1.411   1_655  A
C698        C703   1.506       .  S
C699        C700   1.397       .  A
C699        N704   1.430       .  S
C700        C701   1.411   1_455  A
C700        H705   1.079       .  S
C701        C702   1.414       .  A
C702        N706   1.427       .  S
C703        C708   1.414       .  A
C703        C712   1.407   1_655  A
N704        O719   1.262       .  A
N704        O720   1.262       .  A
N706        O717   1.262       .  A
N706        O718   1.262       .  A
C708        C709   1.410       .  A
C708        N713   1.428       .  S
C709        C710   1.407       .  A
C709        H714   1.079       .  S
C710        C711   1.414   1_655  A
C711        C712   1.407       .  A
C711        N715   1.429       .  S
C712        H716   1.077       .  S
N713        O723   1.262       .  A
N713        O724   1.262       .  A
N715        O721   1.262       .  A
N715        O722   1.262       .  A
C725        C726   1.400   1_655  A
C725        C730   1.398       .  A
C725        H735   1.075       .  S
C726        C727   1.424       .  A
C726        C731   1.512       .  S
C727        C728   1.417       .  A
C727        N732   1.428       .  S
C728        C729   1.406       .  A
C728        H733   1.079       .  S
C729        C730   1.417   1_455  A
C730        N734   1.429       .  S
C731        C736   1.424   1_455  A
C731        C740   1.407       .  A
N732        O747   1.262       .  A
N732        O748   1.262       .  A
N734        O745   1.262       .  A
N734        O746   1.261       .  A
C736        C737   1.404       .  A
C736        N741   1.431       .  S
C737        C738   1.399   1_655  A
C737        H742   1.081       .  S
C738        C739   1.412       .  A
C739        C740   1.410       .  A
C739        N743   1.427       .  S
C740        H744   1.077       .  S
N741        O751   1.262       .  A
N741        O752   1.262       .  A
N743        O749   1.262       .  A
N743        O750   1.261       .  A
C753        C754   1.406       .  A
C753        C758   1.408       .  A
C753        H763   1.078       .  S
C754        C755   1.409   1_655  A
C754        C759   1.496   1_655  S
C755        C756   1.404       .  A
C755        N760   1.427       .  S
C756        C757   1.405   1_455  A
C756        H761   1.078       .  S
C757        C758   1.415       .  A
C758        N762   1.429       .  S
C759        C764   1.408   1_455  A
C759        C768   1.409       .  A
N760        O775   1.262       .  A
N760        O776   1.262       .  A
N762        O773   1.262       .  A
N762        O774   1.262       .  A
C764        C765   1.397       .  A
C764        N769   1.429       .  S
C765        C766   1.408   1_655  A
C765        H770   1.081       .  S
C766        C767   1.415       .  A
C767        C768   1.414       .  A
C767        N771   1.428       .  S
C768        H772   1.079       .  S
N769        O779   1.262       .  A
N769        O780   1.262       .  A
N771        O777   1.262       .  A
N771        O778   1.262       .  A
C781        C782   1.400   1_455  A
C781        C786   1.405       .  A
C781        H791   1.086       .  S
C782        C783   1.406       .  A
C782        C787   1.485       .  S
C783        C784   1.406       .  A
C783        N788   1.429       .  S
C784        C785   1.411       .  A
C784        H789   1.084       .  S
C785        C786   1.416   1_655  A
C786        N790   1.428       .  S
C787        C792   1.411       .  A
C787        C796   1.400       .  A
N788        O803   1.262       .  A
N788        O804   1.261       .  A
N790        O801   1.262       .  A
N790        O802   1.261       .  A
C792        C793   1.405       .  A
C792        N797   1.429       .  S
C793        C794   1.405       .  A
C793        H798   1.081       .  S
C794        C795   1.415   1_655  A
C795        C796   1.401   1_455  A
C795        N799   1.429       .  S
C796        H800   1.082   1_655  S
N797        O807   1.262       .  A
N797        O808   1.262       .  A
N799        O805   1.262       .  A
N799        O806   1.262       .  A
