geometry optimzed in LAMMPS
_audit_creation_date              2020-12-01 
_audit_creation_method            'lammps2cif' 
_symmetry_space_group_name_H-M    'P1' 
_symmetry_Int_Tables_number       1 
_symmetry_cell_setting            triclinic 
loop_ 
_symmetry_equiv_pos_as_xyz 
  x,y,z 
_cell_length_a                    66.13661524 
_cell_length_b                    66.14848625767586 
_cell_length_c                    66.28298814446548 
_cell_angle_alpha                 90.06309597808878 
_cell_angle_beta                  89.88963063087095 
_cell_angle_gamma                 90.03413255021212 
loop_ 
_atom_site_label 
_atom_site_type_symbol 
_atom_site_fract_x 
_atom_site_fract_y 
_atom_site_fract_z 
_atom_site_charge 
Zn1        Zn  0.01971386  0.61577527  0.82193674     1.49700
Zn2        Zn  0.97413037  0.61606631  0.82403103     1.49400
Zn3        Zn  0.99740498  0.65847154  0.83164115     1.49100
Zn4        Zn  0.99558013  0.63878776  0.78772202     1.49500
O5          O  0.99673680  0.63274768  0.81637454    -1.83700
O6          O  0.01351603  0.58545090  0.82585990    -0.74400
O7          O  0.96228619  0.62689180  0.84930633    -0.74200
O8          O  0.02287332  0.65840229  0.84923234    -0.73700
O9          O  0.98015436  0.58566303  0.82640728    -0.74400
O10         O  0.03435283  0.62695039  0.84541265    -0.74000
O11         O  0.97379417  0.65848357  0.85183424    -0.74600
O12         O  0.99693344  0.66846241  0.78263797    -0.74000
O13         O  0.95295073  0.61882087  0.80331936    -0.74700
O14         O  0.99695098  0.68388654  0.81238455    -0.74100
O15         O  0.96925234  0.62945312  0.77593828    -0.74600
O16         O  0.01986207  0.62810698  0.77307516    -0.74500
O17         O  0.03861472  0.61809600  0.79898208    -0.74300
C18         C  0.99677329  0.57590117  0.82688786     0.77500
C19         C  0.96219292  0.64417369  0.85778171     0.78000
C20         C  0.03512862  0.64420740  0.85390418     0.77000
C21         C  0.99736826  0.68458910  0.79303664     0.77300
C22         C  0.95325538  0.62321541  0.78467319     0.78500
C23         C  0.03664359  0.62224211  0.78038564     0.77500
Zn24       Zn  0.99294295  0.35564990  0.78816098     1.49700
Zn25       Zn  0.01758506  0.38018448  0.82143794     1.49400
Zn26       Zn  0.97204446  0.38019933  0.82351275     1.49100
Zn27       Zn  0.99595753  0.33788999  0.83240466     1.49500
O28         O  0.99453083  0.36310065  0.81644626    -1.83700
O29         O  0.01858699  0.36300340  0.77385540    -0.74400
O30         O  0.01167831  0.41082508  0.82317321    -0.74200
O31         O  0.95091031  0.37709808  0.80239599    -0.73700
O32         O  0.03686903  0.37527865  0.79923037    -0.74400
O33         O  0.96791667  0.36662002  0.77534991    -0.74000
O34         O  0.97844125  0.41068626  0.82614008    -0.74600
O35         O  0.97274792  0.33869147  0.85314630    -0.74000
O36         O  0.03163075  0.37066793  0.84620727    -0.74700
O37         O  0.96080552  0.37000882  0.84922043    -0.74100
O38         O  0.02173507  0.33863573  0.84947434    -0.74600
O39         O  0.99556994  0.31170486  0.81413447    -0.74500
O40         O  0.99106090  0.32579309  0.78414758    -0.74300
C41         C  0.03533618  0.36899475  0.78116697     0.77500
C42         C  0.99507661  0.42044877  0.82531526     0.78000
C43         C  0.95170123  0.37281244  0.78368170     0.77000
C44         C  0.96147074  0.35338025  0.85884179     0.77300
C45         C  0.03308815  0.35342253  0.85461004     0.78500
C46         C  0.99301746  0.31012951  0.79501197     0.77500
Zn47       Zn  0.11455791  0.49053940  0.65367673     1.49700
Zn48       Zn  0.14873685  0.51344473  0.67937755     1.49400
Zn49       Zn  0.11131185  0.49072558  0.70040266     1.49100
Zn50       Zn  0.14918364  0.46802871  0.67948297     1.49500
O51         O  0.13049100  0.49056869  0.67830001    -1.83700
O52         O  0.12285180  0.51511688  0.63753089    -0.74400
O53         O  0.13527085  0.53423165  0.69590705    -0.74200
O54         O  0.08137870  0.49132813  0.69127151    -0.73700
O55         O  0.15170082  0.52548819  0.65166501    -0.74400
O56         O  0.08308273  0.49037304  0.65798333    -0.74000
O57         O  0.11521904  0.51638545  0.71630268    -0.74600
O58         O  0.13683369  0.44749398  0.69722017    -0.74000
O59         O  0.17574484  0.50801551  0.69381961    -0.74700
O60         O  0.11530295  0.46506680  0.71636496    -0.74100
O61         O  0.17623553  0.47469265  0.69332363    -0.74600
O62         O  0.15174767  0.45515049  0.65188440    -0.74500
O63         O  0.12351961  0.46641245  0.63729707    -0.74300
C64         C  0.13858567  0.52633992  0.63758613     0.77500
C65         C  0.12329068  0.53305756  0.71086315     0.78000
C66         C  0.07248788  0.49107669  0.67417099     0.77000
C67         C  0.12456387  0.44869333  0.71194904     0.77300
C68         C  0.18418749  0.49141268  0.69876437     0.78500
C69         C  0.13891396  0.45475146  0.63749641     0.77500
Zn70       Zn  0.83962030  0.47698728  0.67922529     1.49700
Zn71       Zn  0.87433934  0.50181906  0.65412647     1.49400
Zn72       Zn  0.83992732  0.52270828  0.68045282     1.49100
Zn73       Zn  0.87695639  0.49908531  0.70095349     1.49500
O74         O  0.85816991  0.49991321  0.67865077    -1.83700
O75         O  0.83816636  0.46500258  0.65115049    -0.74400
O76         O  0.86664606  0.52773104  0.63949031    -0.74200
O77         O  0.81298220  0.51637585  0.69389166    -0.73700
O78         O  0.86513436  0.47891907  0.63622528    -0.74400
O79         O  0.81212664  0.48306167  0.69321604    -0.74000
O80         O  0.83772968  0.53710791  0.65394938    -0.74600
O81         O  0.87302125  0.52423549  0.71769983    -0.74000
O82         O  0.90578077  0.50025548  0.65883012    -0.74700
O83         O  0.85184466  0.54247362  0.69897986    -0.74100
O84         O  0.90697603  0.49775279  0.69207879    -0.74600
O85         O  0.87190337  0.47375833  0.71670731    -0.74500
O86         O  0.85169629  0.45586248  0.69663859    -0.74300
C87         C  0.85042987  0.46637309  0.63625705     0.77500
C88         C  0.85106346  0.53916789  0.64018409     0.78000
C89         C  0.80443070  0.49986343  0.69886338     0.77000
C90         C  0.86369678  0.54068056  0.71388502     0.77300
C91         C  0.91610443  0.49836395  0.67507433     0.78500
C92         C  0.86323270  0.45721343  0.71188520     0.77500
Zn93       Zn  0.64158957  0.00580313  0.78534360     1.49700
Zn94       Zn  0.61829260  0.01785513  0.82551187     1.49400
Zn95       Zn  0.61983362  0.97441825  0.81416627     1.49100
Zn96       Zn  0.66107621  0.99691483  0.82757113     1.49500
O97         O  0.63555604  0.99858099  0.81283869    -1.83700
O98         O  0.63177553  0.03407655  0.77979463    -0.74400
O99         O  0.58805533  0.01076847  0.82536719    -0.74200
O100        O  0.62671630  0.95934855  0.78927467    -0.73700
O101        O  0.62134870  0.04321732  0.81037531    -0.74400
O102        O  0.63247396  0.98352748  0.76645943    -0.74000
O103        O  0.58867199  0.97900396  0.81528119    -0.74600
O104        O  0.66005188  0.97161736  0.84463527    -0.74000
O105        O  0.62858877  0.02398220  0.85296010    -0.74700
O106        O  0.62957832  0.95874663  0.83815326    -0.74100
O107        O  0.66169284  0.01999979  0.84789620    -0.74600
O108        O  0.68656035  0.99770262  0.80886910    -0.74500
O109        O  0.67143863  0.00697581  0.78057133    -0.74300
C110        C  0.62587878  0.04757404  0.79226170     0.77500
C111        C  0.57860252  0.99473351  0.82031334     0.78000
C112        C  0.63019070  0.96496312  0.77122107     0.77000
C113        C  0.64603029  0.95882523  0.84821859     0.77300
C114        C  0.64688340  0.02713180  0.85806519     0.78500
C115        C  0.68747442  0.00299575  0.79031829     0.77500
Zn116      Zn  0.38152634  0.99770899  0.83596435     1.49700
Zn117      Zn  0.38367935  0.99502906  0.78887274     1.49400
Zn118      Zn  0.34660303  0.97362720  0.81223812     1.49100
Zn119      Zn  0.34725938  0.01943728  0.80963590     1.49500
O120        O  0.36518496  0.99638988  0.81162679    -1.83700
O121        O  0.41251149  0.99653144  0.83075102    -0.74400
O122        O  0.37939727  0.96852108  0.77472027    -0.74200
O123        O  0.34473260  0.96261943  0.84071072    -0.73700
O124        O  0.41381052  0.99531482  0.79740330    -0.74400
O125        O  0.37260344  0.97528821  0.85475972    -0.74000
O126        O  0.35890643  0.95196684  0.79578858    -0.74600
O127        O  0.31940975  0.01284415  0.79881952    -0.74000
O128        O  0.37866545  0.01889154  0.77056190    -0.74700
O129        O  0.31913665  0.97949595  0.79874283    -0.74100
O130        O  0.35770754  0.03781856  0.78876706    -0.74600
O131        O  0.34669877  0.03494488  0.83558795    -0.74500
O132        O  0.37460010  0.02349505  0.85048752    -0.74300
C133        C  0.42285345  0.99567534  0.81443176     0.77500
C134        C  0.37085535  0.95232187  0.78075969     0.78000
C135        C  0.35721261  0.96362558  0.85539129     0.77000
C136        C  0.31087262  0.99627059  0.79404170     0.77300
C137        C  0.36890229  0.03529499  0.77339123     0.78500
C138        C  0.35985042  0.03587909  0.84959227     0.77500
Zn139      Zn  0.49659382  0.13830959  0.71521067     1.49700
Zn140      Zn  0.52696116  0.11453652  0.68463152     1.49400
Zn141      Zn  0.48230288  0.11238803  0.67713760     1.49100
Zn142      Zn  0.50326750  0.15591506  0.67205342     1.49500
O143        O  0.50254081  0.13051743  0.68745657    -1.83700
O144        O  0.51955510  0.12940912  0.73293422    -0.74400
O145        O  0.52268918  0.08326682  0.68114854    -0.74200
O146        O  0.45824616  0.11542545  0.69444510    -0.73700
O147        O  0.54228338  0.11977013  0.70977893    -0.74400
O148        O  0.46876785  0.12884178  0.72335542    -0.74000
O149        O  0.48973580  0.08208789  0.67621104    -0.74600
O150        O  0.48001358  0.15516488  0.65194940    -0.74000
O151        O  0.54322690  0.12576932  0.66145553    -0.74700
O152        O  0.47337043  0.12215777  0.65034288    -0.74100
O153        O  0.52838905  0.15533950  0.65485264    -0.74600
O154        O  0.50242317  0.18242311  0.68973612    -0.74500
O155        O  0.49550249  0.16858822  0.71931145    -0.74300
C156        C  0.53755121  0.12475019  0.72775188     0.77500
C157        C  0.50661659  0.07293279  0.67804674     0.78000
C158        C  0.45477828  0.12163987  0.71225043     0.77000
C159        C  0.47111643  0.14009644  0.64373677     0.77300
C160        C  0.54215216  0.14224221  0.65150167     0.78500
C161        C  0.49845412  0.18424104  0.70857463     0.77500
Zn162      Zn  0.51003772  0.87879819  0.70695144     1.49700
Zn163      Zn  0.53016651  0.84012369  0.68545271     1.49400
Zn164      Zn  0.48458097  0.84286749  0.68699571     1.49100
Zn165      Zn  0.50900490  0.87506468  0.65988599     1.49500
O166        O  0.50830411  0.85961479  0.68483599    -1.83700
O167        O  0.53774889  0.87623457  0.71948310    -0.74400
O168        O  0.52317913  0.81357916  0.69990137    -0.74200
O169        O  0.46660531  0.85563281  0.70674944    -0.73700
O170        O  0.55270576  0.85301680  0.70007463    -0.74400
O171        O  0.48656211  0.87448173  0.72613145    -0.74000
O172        O  0.48978178  0.81514414  0.69941542    -0.74600
O173        O  0.48449891  0.86735454  0.64358383    -0.74000
O174        O  0.54129371  0.83596024  0.65766912    -0.74700
O175        O  0.46978950  0.84213363  0.66045349    -0.74100
O176        O  0.53282826  0.86531477  0.64346754    -0.74600
O177        O  0.50980763  0.90637876  0.66406768    -0.74500
O178        O  0.50799731  0.90836912  0.69735565    -0.74300
C179        C  0.55347087  0.86681725  0.71336928     0.77500
C180        C  0.50599822  0.80614217  0.70457705     0.78000
C181        C  0.46937931  0.86656376  0.72226646     0.77000
C182        C  0.47095466  0.85367852  0.64507567     0.77300
C183        C  0.54296746  0.84888169  0.64349592     0.78500
C184        C  0.50862900  0.91705307  0.68016114     0.77500
Zn185      Zn  0.36010604  0.78576951  0.99583522     1.49700
Zn186      Zn  0.33941238  0.82890876  0.99605080     1.49400
Zn187      Zn  0.38270766  0.82170420  0.01878885     1.49100
Zn188      Zn  0.38267741  0.82157615  0.97366280     1.49500
O189        O  0.36575862  0.81450617  0.99619784    -1.83700
O190        O  0.33047681  0.77976202  0.99504353    -0.74400
O191        O  0.33833878  0.84652633  0.02160948    -0.74200
O192        O  0.38044028  0.79936644  0.03853488    -0.73700
O193        O  0.31408943  0.80887564  0.99431534    -0.74400
O194        O  0.37020671  0.77247446  0.02104273    -0.74000
O195        O  0.37028820  0.84557104  0.03228558    -0.74600
O196        O  0.41351726  0.82328313  0.97955559    -0.74000
O197        O  0.34024358  0.84958807  0.97276365    -0.74700
O198        O  0.41351537  0.82577670  0.01272607    -0.74100
O199        O  0.37233937  0.84747956  0.96253670    -0.74600
O200        O  0.37843937  0.80073916  0.95261866    -0.74500
O201        O  0.37009481  0.77336566  0.97024187    -0.74300
C202        C  0.31391396  0.78943543  0.99417665     0.77500
C203        C  0.35240980  0.85270120  0.03337041     0.78000
C204        C  0.37612369  0.78066816  0.03739900     0.77000
C205        C  0.42329519  0.82518797  0.99606741     0.77300
C206        C  0.35513239  0.85617150  0.96224161     0.78500
C207        C  0.37459382  0.78192575  0.95363412     0.77500
Zn208      Zn  0.61808206  0.79389099  0.99430606     1.49700
Zn209      Zn  0.62218094  0.84078966  0.99577268     1.49400
Zn210      Zn  0.65587807  0.81366542  0.01762349     1.49100
Zn211      Zn  0.65584507  0.81454174  0.97225495     1.49500
O212        O  0.63750087  0.81572484  0.99499440    -1.83700
O213        O  0.58835608  0.80366445  0.99332075    -0.74400
O214        O  0.63121524  0.85651985  0.02036917    -0.74200
O215        O  0.64303549  0.79587296  0.03764981    -0.73700
O216        O  0.59060048  0.83693269  0.99562866    -0.74400
O217        O  0.62086747  0.77782609  0.01989079    -0.74000
O218        O  0.65889146  0.84065633  0.03103669    -0.74600
O219        O  0.68241624  0.79983064  0.97806509    -0.74000
O220        O  0.63132737  0.85745207  0.97194695    -0.74700
O221        O  0.68284454  0.79988329  0.01136579    -0.74100
O222        O  0.65895623  0.84216169  0.96009465    -0.74600
O223        O  0.64343471  0.79755254  0.95139631    -0.74500
O224        O  0.62318852  0.77738716  0.96928325    -0.74300
C225        C  0.57972896  0.82092685  0.99431232     0.77500
C226        C  0.64661952  0.85548937  0.03194906     0.78000
C227        C  0.63013310  0.78171165  0.03631456     0.77000
C228        C  0.69070344  0.79463007  0.99460367     0.77300
C229        C  0.64664188  0.85702280  0.96017596     0.78500
C230        C  0.63207209  0.78215976  0.95284652     0.77500
Zn231      Zn  0.52552858  0.68410848  0.15535965     1.49700
Zn232      Zn  0.50222837  0.70503549  0.11822376     1.49400
Zn233      Zn  0.50367935  0.65806709  0.12100555     1.49100
Zn234      Zn  0.47976573  0.68271951  0.15529928     1.49500
O235        O  0.50279501  0.68260461  0.13706928    -1.83700
O236        O  0.54530351  0.70275662  0.14329843    -0.74400
O237        O  0.50301623  0.69604447  0.08818259    -0.74200
O238        O  0.52818617  0.64201813  0.12933097    -0.73700
O239        O  0.52713641  0.72217718  0.12266240    -0.74400
O240        O  0.53932311  0.65709004  0.15729199    -0.74000
O241        O  0.50311590  0.66265554  0.08979036    -0.74600
O242        O  0.46845708  0.65444849  0.15790921    -0.74000
O243        O  0.47583648  0.71990398  0.12213846    -0.74700
O244        O  0.48049232  0.64058862  0.12972387    -0.74100
O245        O  0.45854233  0.69954301  0.14272178    -0.74600
O246        O  0.48543444  0.69628713  0.18253775    -0.74500
O247        O  0.51880145  0.69647687  0.18278264    -0.74300
C248        C  0.54375038  0.71767354  0.13136629     0.77500
C249        C  0.50309504  0.67888956  0.07926990     0.78000
C250        C  0.53981890  0.64251675  0.14468025     0.77000
C251        C  0.46900797  0.63993807  0.14519207     0.77300
C252        C  0.45937168  0.71447231  0.13069625     0.78500
C253        C  0.50202517  0.70112132  0.19105511     0.77500
Zn254      Zn  0.49831377  0.65308634  0.88122831     1.49700
Zn255      Zn  0.47779147  0.67888104  0.84546619     1.49400
Zn256      Zn  0.49835748  0.70031879  0.88385683     1.49100
Zn257      Zn  0.52299250  0.67842788  0.84797434     1.49500
O258        O  0.49933924  0.67774358  0.86518427    -1.83700
O259        O  0.47419176  0.63670106  0.87162193    -0.74400
O260        O  0.45663926  0.69684104  0.85600966    -0.74200
O261        O  0.49772848  0.69152888  0.91384651    -0.73700
O262        O  0.46501643  0.65171988  0.84291131    -0.74400
O263        O  0.49793699  0.65809464  0.91258054    -0.74000
O264        O  0.47269992  0.71599410  0.87855761    -0.74600
O265        O  0.54248967  0.69669504  0.86061098    -0.74000
O266        O  0.48543424  0.69145613  0.81829626    -0.74700
O267        O  0.52374273  0.71689909  0.87998860    -0.74100
O268        O  0.51868951  0.69140541  0.82034121    -0.74600
O269        O  0.53589889  0.65096067  0.84661593    -0.74500
O270        O  0.52250710  0.63614153  0.87365624    -0.74300
C271        C  0.46357940  0.63724830  0.85551042     0.77500
C272        C  0.45698567  0.71156892  0.86826783     0.78000
C273        C  0.49780308  0.67448637  0.92293655     0.77000
C274        C  0.54055487  0.71225354  0.87167548     0.77300
C275        C  0.50260490  0.69619028  0.81096045     0.78500
C276        C  0.53515008  0.63629113  0.85908419     0.77500
Zn277      Zn  0.81700741  0.64861657  0.97820252     1.49700
Zn278      Zn  0.81470959  0.64920770  0.02366405     1.49400
Zn279      Zn  0.79561425  0.61151291  0.99998968     1.49100
Zn280      Zn  0.84309179  0.61563577  0.00293431     1.49500
O281        O  0.81771960  0.63071061  0.00124624    -1.83700
O282        O  0.80257010  0.67554992  0.98318820    -0.74400
O283        O  0.79536996  0.63735627  0.04258737    -0.74200
O284        O  0.78077269  0.61489280  0.97378661    -0.73700
O285        O  0.80163992  0.67597871  0.01646425    -0.74400
O286        O  0.80115649  0.63543505  0.95665404    -0.74000
O287        O  0.77769514  0.61531212  0.02435245    -0.74600
O288        O  0.83877410  0.58393025  0.00300606    -0.74000
O289        O  0.84083679  0.65220050  0.03865958    -0.74700
O290        O  0.80541642  0.58207124  0.00015665    -0.74100
O291        O  0.85808897  0.62524708  0.02793866    -0.74600
O292        O  0.86112412  0.62510960  0.97977057    -0.74500
O293        O  0.84505817  0.65213207  0.96765961    -0.74300
C294        C  0.79699473  0.68389621  0.99961250     0.77500
C295        C  0.78082089  0.62499285  0.04071875     0.78000
C296        C  0.78625133  0.62333535  0.95736989     0.77000
C297        C  0.82256592  0.57332366  0.00150281     0.77300
C298        C  0.85614452  0.64054248  0.03960496     0.78500
C299        C  0.86056338  0.64069707  0.96835736     0.77500
Zn300      Zn  0.81249798  0.34148424  0.97956730     1.49700
Zn301      Zn  0.79155184  0.37817439  0.00404713     1.49400
Zn302      Zn  0.81357022  0.34014372  0.02514679     1.49100
Zn303      Zn  0.83868970  0.37538096  0.00324191     1.49500
O304        O  0.81401471  0.35920513  0.00287360    -1.83700
O305        O  0.79172051  0.35233704  0.96139421    -0.74400
O306        O  0.77771221  0.37497399  0.03096934    -0.74200
O307        O  0.80042713  0.31279827  0.01868975    -0.73700
O308        O  0.77300903  0.37279668  0.98046551    -0.74400
O309        O  0.80168248  0.31307516  0.98545497    -0.74000
O310        O  0.79673098  0.35199248  0.04650846    -0.74600
O311        O  0.85565816  0.36651871  0.02708503    -0.74000
O312        O  0.80049264  0.40816423  0.00246197    -0.74700
O313        O  0.84122885  0.33782913  0.03738815    -0.74100
O314        O  0.83387520  0.40663789  0.00324040    -0.74600
O315        O  0.85511614  0.36768729  0.97889903    -0.74500
O316        O  0.83905379  0.34172405  0.96459881    -0.74300
C317        C  0.77621886  0.36338773  0.96393717     0.77500
C318        C  0.78280007  0.36515704  0.04673408     0.78000
C319        C  0.79643673  0.30442768  0.00182348     0.77000
C320        C  0.85557764  0.35070705  0.03815809     0.77300
C321        C  0.81761641  0.41713832  0.00263256     0.78500
C322        C  0.85409768  0.35377983  0.96558597     0.77500
Zn323      Zn  0.70829342  0.49528071  0.12202479     1.49700
Zn324      Zn  0.66159573  0.49633686  0.12437659     1.49400
Zn325      Zn  0.68656818  0.47297996  0.15951721     1.49100
Zn326      Zn  0.68650654  0.51890102  0.15900286     1.49500
O327        O  0.68583458  0.49573957  0.14092864    -1.83700
O328        O  0.69986937  0.49365163  0.09190073    -0.74400
O329        O  0.64416798  0.47324092  0.13339899    -0.74200
O330        O  0.70609267  0.45284767  0.14882095    -0.73700
O331        O  0.66653855  0.49453653  0.09337521    -0.74400
O332        O  0.72510758  0.47082979  0.12766868    -0.74000
O333        O  0.65907019  0.45974953  0.16034599    -0.74600
O334        O  0.69868594  0.51320531  0.18685625    -0.74000
O335        O  0.64589964  0.52166253  0.13092842    -0.74700
O336        O  0.69804437  0.47986854  0.18747566    -0.74100
O337        O  0.65924259  0.53270833  0.15977918    -0.74600
O338        O  0.70519576  0.53862058  0.14698819    -0.74500
O339        O  0.72404586  0.52094695  0.12533658    -0.74300
C340        C  0.68278700  0.49361199  0.08291427     0.77500
C341        C  0.64427913  0.46070667  0.14802793     0.78000
C342        C  0.72139756  0.45457102  0.13729815     0.77000
C343        C  0.70291958  0.49662376  0.19567963     0.77300
C344        C  0.64568179  0.53354529  0.14611759     0.78500
C345        C  0.71978581  0.53732075  0.13457780     0.77500
Zn346      Zn  0.66875238  0.49664763  0.84453529     1.49700
Zn347      Zn  0.71245908  0.49181382  0.86285952     1.49400
Zn348      Zn  0.68080530  0.51801029  0.88688454     1.49100
Zn349      Zn  0.67457107  0.47331397  0.88661844     1.49500
O350        O  0.68415309  0.49489273  0.86979717    -1.83700
O351        O  0.68722044  0.49718700  0.81846925    -0.74400
O352        O  0.72877795  0.51558883  0.87243297    -0.74200
O353        O  0.65568816  0.53257656  0.87818119    -0.73700
O354        O  0.71696314  0.49336920  0.83317149    -0.74400
O355        O  0.65171549  0.52201615  0.84643768    -0.74000
O356        O  0.70339262  0.53626972  0.88018824    -0.74600
O357        O  0.67406115  0.47917330  0.91734754    -0.74000
O358        O  0.72230139  0.46433227  0.87113458    -0.74700
O359        O  0.68162228  0.51170311  0.91774339    -0.74100
O360        O  0.69361635  0.45090274  0.88255676    -0.74600
O361        O  0.64819154  0.46318683  0.87608527    -0.74500
O362        O  0.64806162  0.47357224  0.84407076    -0.74300
C363        C  0.70653705  0.49585300  0.81730494     0.77500
C364        C  0.72183189  0.53327046  0.87567322     0.78000
C365        C  0.64688475  0.53365748  0.86106906     0.77000
C366        C  0.67822844  0.49521693  0.92725579     0.77300
C367        C  0.71201314  0.44921665  0.87724850     0.78500
C368        C  0.64069640  0.46284035  0.85837477     0.77500
Zn369      Zn  0.99715235  0.83177640  0.66166815     1.49700
Zn370      Zn  0.01632712  0.81871205  0.61899851     1.49400
Zn371      Zn  0.98460494  0.79029138  0.64180622     1.49100
Zn372      Zn  0.97261750  0.83145236  0.61919626     1.49500
O373        O  0.99251628  0.81804443  0.63572525    -1.83700
O374        O  0.02376367  0.84696242  0.66019327    -0.74400
O375        O  0.03041992  0.79288196  0.62388458    -0.74200
O376        O  0.98315655  0.78469014  0.67166305    -0.73700
O377        O  0.03455753  0.84068822  0.62896171    -0.74400
O378        O  0.99692116  0.81159828  0.68617410    -0.74000
O379        O  0.00634556  0.77097513  0.63274829    -0.74600
O380        O  0.94826035  0.81421432  0.61807905    -0.74000
O381        O  0.01104537  0.82222434  0.58835096    -0.74700
O382        O  0.95736965  0.78413866  0.62988226    -0.74100
O383        O  0.98052097  0.83561144  0.58927094    -0.74600
O384        O  0.96385547  0.85668060  0.63303945    -0.74500
O385        O  0.97594288  0.85406613  0.66447069    -0.74300
C386        C  0.03623408  0.84991646  0.64577535     0.77500
C387        C  0.02466413  0.77511400  0.62846285     0.78000
C388        C  0.98992888  0.79354418  0.68730597     0.77000
C389        C  0.94440155  0.79575574  0.62168760     0.77300
C390        C  0.99592865  0.82988499  0.57912161     0.78500
C391        C  0.96499077  0.86283855  0.65122704     0.77500
Zn392      Zn  0.97951043  0.82349691  0.38236962     1.49700
Zn393      Zn  0.02362839  0.83655145  0.38487176     1.49400
Zn394      Zn  0.01356058  0.79534755  0.36213840     1.49100
Zn395      Zn  0.00211491  0.83593419  0.34149229     1.49500
O396        O  0.00465775  0.82272530  0.36765198    -1.83700
O397        O  0.98330875  0.82707756  0.41342127    -0.74400
O398        O  0.04898021  0.82041899  0.38611367    -0.74200
O399        O  0.99284394  0.77597430  0.37243185    -0.73700
O400        O  0.01432709  0.83945498  0.41445128    -0.74400
O401        O  0.96665669  0.79674232  0.37743877    -0.74000
O402        O  0.04116524  0.79037602  0.37342775    -0.74600
O403        O  0.00225602  0.81584975  0.31737668    -0.74000
O404        O  0.03151178  0.86259647  0.37174905    -0.74700
O405        O  0.01472401  0.78876727  0.33250642    -0.74100
O406        O  0.02469675  0.85637114  0.33934298    -0.74600
O407        O  0.97659433  0.85259398  0.34113353    -0.74500
O408        O  0.96181018  0.84567012  0.37053905    -0.74300
C409        C  0.99823934  0.83393876  0.42361834     0.77500
C410        C  0.05372797  0.80229357  0.38181199     0.78000
C411        C  0.97403312  0.77908542  0.37514372     0.77000
C412        C  0.00861758  0.79761196  0.31663118     0.77300
C413        C  0.03326464  0.86690216  0.35304992     0.78500
C414        C  0.96247376  0.85547880  0.35393416     0.77500
Zn415      Zn  0.11368141  0.70648259  0.51009892     1.49700
Zn416      Zn  0.15149327  0.68788671  0.48492060     1.49400
Zn417      Zn  0.15082790  0.68425891  0.53107130     1.49100
Zn418      Zn  0.11710634  0.66006710  0.50543982     1.49500
O419        O  0.13306497  0.68467256  0.50773369    -1.83700
O420        O  0.11961422  0.72681378  0.48861577    -0.74400
O421        O  0.17994376  0.69816845  0.49276046    -0.74200
O422        O  0.13663973  0.69799571  0.55377678    -0.73700
O423        O  0.14110039  0.71073110  0.46829639    -0.74400
O424        O  0.11525959  0.71848295  0.53783670    -0.74000
O425        O  0.17754493  0.69972840  0.52603034    -0.74600
O426        O  0.12703753  0.64094135  0.52683922    -0.74000
O427        O  0.15136303  0.66223202  0.46767155    -0.74700
O428        O  0.15433982  0.65537297  0.54041710    -0.74100
O429        O  0.12351684  0.64671867  0.47886345    -0.74600
O430        O  0.08598035  0.66407782  0.50740546    -0.74500
O431        O  0.08400594  0.69739471  0.50726704    -0.74300
C432        C  0.12977534  0.72577941  0.47226578     0.77500
C433        C  0.18707145  0.70387315  0.50975082     0.78000
C434        C  0.12339283  0.71189330  0.55394871     0.77000
C435        C  0.14231847  0.64034419  0.53857370     0.77300
C436        C  0.13812330  0.64818195  0.46636335     0.78500
C437        C  0.07527639  0.68017531  0.50726427     0.77500
Zn438      Zn  0.83684043  0.67024058  0.49942401     1.49700
Zn439      Zn  0.87837439  0.68491025  0.52052404     1.49400
Zn440      Zn  0.88101443  0.66971053  0.47824137     1.49100
Zn441      Zn  0.85695397  0.71139283  0.48689972     1.49500
O442        O  0.86291409  0.68417816  0.49607358    -1.83700
O443        O  0.83763314  0.65557307  0.52659727    -0.74400
O444        O  0.90939063  0.68257092  0.51700182    -0.74200
O445        O  0.86823731  0.64344710  0.47046958    -0.73700
O446        O  0.86818676  0.66307977  0.53853911    -0.74400
O447        O  0.83554447  0.64778267  0.47807407    -0.74000
O448        O  0.91067347  0.66671162  0.48778773    -0.74600
O449        O  0.87098265  0.71618519  0.46045018    -0.74000
O450        O  0.87223762  0.71087849  0.53357718    -0.74700
O451        O  0.88348327  0.68580321  0.45327889    -0.74100
O452        O  0.86442186  0.73177233  0.50840899    -0.74600
O453        O  0.82703080  0.71625411  0.48313114    -0.74500
O454        O  0.81174137  0.68985520  0.49694629    -0.74300
C455        C  0.85162984  0.65329785  0.53971981     0.77500
C456        C  0.91975994  0.67411313  0.50308780     0.78000
C457        C  0.84980195  0.63784854  0.46955084     0.77000
C458        C  0.88015996  0.70411580  0.44853424     0.77300
C459        C  0.86786429  0.72837662  0.52700880     0.78500
C460        C  0.81089273  0.70750813  0.48897843     0.77500
Zn461      Zn  0.83380185  0.00329694  0.65779577     1.49700
Zn462      Zn  0.83309830  0.98091656  0.61485526     1.49400
Zn463      Zn  0.79239561  0.99702182  0.63569096     1.49100
Zn464      Zn  0.82538657  0.02494440  0.61487576     1.49500
O465        O  0.82085834  0.00148936  0.63121854    -1.83700
O466        O  0.85464290  0.98078249  0.65981294    -0.74400
O467        O  0.81493163  0.95749544  0.61601963    -0.74200
O468        O  0.78545965  0.99477102  0.66521625    -0.73700
O469        O  0.85945311  0.97260578  0.62745310    -0.74400
O470        O  0.81330564  0.00232165  0.68204752    -0.74000
O471        O  0.78460112  0.97063165  0.62247815    -0.74600
O472        O  0.80192886  0.04288907  0.61959775    -0.74000
O473        O  0.83513685  0.98729856  0.58419024    -0.74700
O474        O  0.77670028  0.02182736  0.62698820    -0.74100
O475        O  0.82797736  0.01983246  0.58391288    -0.74600
O476        O  0.84991363  0.03854891  0.62587788    -0.74500
O477        O  0.85104771  0.02869388  0.65809630    -0.74300
C478        C  0.86476670  0.97189324  0.64595364     0.77500
C479        C  0.79582324  0.95586847  0.61699029     0.78000
C480        C  0.79438737  0.99811048  0.68189288     0.77000
C481        C  0.78333676  0.03958877  0.62331871     0.77300
C482        C  0.83190708  0.00353883  0.57429282     0.78500
C483        C  0.85750068  0.03960106  0.64353877     0.77500
Zn484      Zn  0.82429712  0.97994361  0.37797966     1.49700
Zn485      Zn  0.82532668  0.02560195  0.37683843     1.49400
Zn486      Zn  0.83357980  0.00127210  0.33438963     1.49100
Zn487      Zn  0.78966944  0.00319393  0.35325347     1.49500
O488        O  0.81826242  0.00249574  0.36026156    -1.83700
O489        O  0.82756337  0.98673150  0.40853286    -0.74400
O490        O  0.84966465  0.03873966  0.36465078    -0.74200
O491        O  0.85323299  0.97716042  0.33581461    -0.73700
O492        O  0.82832423  0.02006438  0.40775354    -0.74400
O493        O  0.84931361  0.96657383  0.36751436    -0.74000
O494        O  0.85214798  0.02593388  0.33349994    -0.74600
O495        O  0.78477024  0.00114560  0.32350920    -0.74000
O496        O  0.80353124  0.04582129  0.37404323    -0.74700
O497        O  0.81465922  0.00007604  0.30841141    -0.74100
O498        O  0.77680180  0.02941634  0.36198953    -0.74600
O499        O  0.77582388  0.97857535  0.36380656    -0.74500
O500        O  0.80156983  0.96032200  0.37540997    -0.74300
C501        C  0.82863788  0.00361187  0.41787602     0.77500
C502        C  0.85764849  0.03850084  0.34710738     0.78000
C503        C  0.85865123  0.96605445  0.35066880     0.77000
C504        C  0.79526138  0.99995262  0.30749084     0.77300
C505        C  0.78505936  0.04542573  0.36881677     0.78500
C506        C  0.78306209  0.96202737  0.37039977     0.77500
Zn507      Zn  0.68143901  0.15569619  0.52167381     1.49700
Zn508      Zn  0.65370517  0.12374797  0.49840614     1.49400
Zn509      Zn  0.68245053  0.15654524  0.47547669     1.49100
Zn510      Zn  0.70083693  0.11805106  0.49859918     1.49500
O511        O  0.67949504  0.13818633  0.49829469    -1.83700
O512        O  0.65456452  0.15934902  0.53466197    -0.74400
O513        O  0.63814887  0.13291686  0.47374958    -0.74200
O514        O  0.69514501  0.18406418  0.48282136    -0.73700
O515        O  0.63776639  0.13252758  0.52322352    -0.74400
O516        O  0.69543008  0.18246649  0.51610717    -0.74000
O517        O  0.65578557  0.15854985  0.46074722    -0.74600
O518        O  0.71876043  0.12163779  0.47426768    -0.74000
O519        O  0.65682859  0.09227299  0.49833424    -0.74700
O520        O  0.70199603  0.14436009  0.45610595    -0.74100
O521        O  0.69008864  0.08901811  0.49741968    -0.74600
O522        O  0.71586008  0.11984023  0.52486875    -0.74500
O523        O  0.69779723  0.14202579  0.54256802    -0.74300
C524        C  0.63955118  0.14733643  0.53550648     0.77500
C525        C  0.64021930  0.14708807  0.46081325     0.78000
C526        C  0.70012044  0.19160302  0.49985274     0.77000
C527        C  0.71612749  0.13146126  0.45793056     0.77300
C528        C  0.67254851  0.08098023  0.49778491     0.78500
C529        C  0.71151999  0.12867437  0.54142981     0.77500
Zn530      Zn  0.66412352  0.88553621  0.47372913     1.49700
Zn531      Zn  0.67742858  0.88460317  0.51717568     1.49400
Zn532      Zn  0.66475337  0.84204051  0.49600999     1.49100
Zn533      Zn  0.70540013  0.86305293  0.48466107     1.49500
O534        O  0.67792167  0.86850858  0.49292392    -1.83700
O535        O  0.66278893  0.91585397  0.48120658    -0.74400
O536        O  0.65710537  0.87261841  0.53628996    -0.74200
O537        O  0.64134851  0.84095555  0.47591919    -0.73700
O538        O  0.67332488  0.91554715  0.51273880    -0.74400
O539        O  0.63705508  0.87348048  0.46795591    -0.74000
O540        O  0.65160789  0.84188011  0.52356182    -0.74600
O541        O  0.71273960  0.83368840  0.48683226    -0.74000
O542        O  0.70425518  0.88118078  0.52960337    -0.74700
O543        O  0.68458000  0.81703171  0.49362234    -0.74100
O544        O  0.72492802  0.87660607  0.50333451    -0.74600
O545        O  0.70912058  0.87099639  0.45584674    -0.74500
O546        O  0.67930497  0.88439126  0.44791957    -0.74300
C547        C  0.66759769  0.92546144  0.49721116     0.77500
C548        C  0.64898996  0.85513654  0.53734789     0.78000
C549        C  0.63118909  0.85509388  0.46751015     0.77000
C550        C  0.70369801  0.81709413  0.49036859     0.77300
C551        C  0.72187294  0.87977016  0.52203388     0.78500
C552        C  0.69706873  0.87883366  0.44310276     0.77500
Zn553      Zn  0.65725600  0.99495506  0.16561580     1.49700
Zn554      Zn  0.61545254  0.97185251  0.17679551     1.49400
Zn555      Zn  0.63690835  0.00183905  0.20771671     1.49100
Zn556      Zn  0.61320112  0.01605221  0.16770074     1.49500
O557        O  0.63104071  0.99628360  0.17958500    -1.83700
O558        O  0.65747602  0.96907167  0.14917737    -0.74400
O559        O  0.62149877  0.95544253  0.20084024    -0.74200
O560        O  0.66682681  0.00459096  0.21345901    -0.73700
O561        O  0.62645527  0.95643099  0.15322900    -0.74400
O562        O  0.68245350  0.99636163  0.18510567    -0.74000
O563        O  0.62916907  0.97789043  0.22473057    -0.74600
O564        O  0.61314449  0.03960794  0.18599628    -0.74000
O565        O  0.58421761  0.97585369  0.17494141    -0.74700
O566        O  0.62369359  0.02798316  0.21575435    -0.74100
O567        O  0.58292561  0.00772348  0.16535962    -0.74600
O568        O  0.62526904  0.02564393  0.14160920    -0.74500
O569        O  0.65791121  0.01754988  0.14458179    -0.74300
C570        C  0.64377502  0.95621186  0.14469199     0.77500
C571        C  0.62583337  0.95979492  0.21901046     0.78000
C572        C  0.68315091  0.00102673  0.20387928     0.77000
C573        C  0.61627782  0.04195374  0.20476820     0.77300
C574        C  0.57378328  0.99128943  0.16983812     0.78500
C575        C  0.64356428  0.02679713  0.13552582     0.77500
Zn576      Zn  0.37510157  0.99476554  0.15475748     1.49700
Zn577      Zn  0.34006159  0.97263767  0.18067512     1.49400
Zn578      Zn  0.37958504  0.99170114  0.20163141     1.49100
Zn579      Zn  0.34348706  0.01846235  0.18342208     1.49500
O580        O  0.35991361  0.99435710  0.18005427    -1.83700
O581        O  0.36374213  0.97258352  0.13666774    -0.74400
O582        O  0.35164766  0.94995865  0.19643398    -0.74200
O583        O  0.40899910  0.99080348  0.19144807    -0.73700
O584        O  0.33621664  0.96147716  0.15276171    -0.74400
O585        O  0.40657909  0.99215462  0.15823531    -0.74000
O586        O  0.37481398  0.96524805  0.21555443    -0.74600
O587        O  0.35667581  0.03564828  0.20365199    -0.74000
O588        O  0.31340115  0.98033100  0.19477157    -0.74700
O589        O  0.37768586  0.01561671  0.22045958    -0.74100
O590        O  0.31549561  0.01362796  0.19547496    -0.74600
O591        O  0.34296478  0.03470871  0.15789397    -0.74500
O592        O  0.36877887  0.02116032  0.14097518    -0.74300
C593        C  0.34788029  0.96152064  0.13739893     0.77500
C594        C  0.36479279  0.94960668  0.21036699     0.78000
C595        C  0.41750783  0.99096550  0.17414476     0.77000
C596        C  0.36898482  0.03263729  0.21800131     0.77300
C597        C  0.30608354  0.99742383  0.19994463     0.78500
C598        C  0.35530775  0.03481639  0.14309256     0.77500
Zn599      Zn  0.49134425  0.14642249  0.28680864     1.49700
Zn600      Zn  0.52113842  0.12203143  0.31659112     1.49400
Zn601      Zn  0.49936177  0.16394525  0.33031580     1.49100
Zn602      Zn  0.47608926  0.12083077  0.32492981     1.49500
O603        O  0.49700027  0.13856189  0.31464549    -1.83700
O604        O  0.51383660  0.13746816  0.26843574    -0.74400
O605        O  0.53874682  0.13324125  0.33846451    -0.74200
O606        O  0.49750078  0.19021099  0.31260592    -0.73700
O607        O  0.53594176  0.12568162  0.29088526    -0.74400
O608        O  0.49001922  0.17650559  0.28303588    -0.74000
O609        O  0.52605910  0.16367717  0.34514936    -0.74600
O610        O  0.46647906  0.13176591  0.35129724    -0.74000
O611        O  0.51650949  0.09112945  0.32084724    -0.74700
O612        O  0.47804378  0.16343297  0.35274248    -0.74100
O613        O  0.48370924  0.09045469  0.32690809    -0.74600
O614        O  0.45268377  0.12223738  0.30640433    -0.74500
O615        O  0.46436235  0.13598640  0.27813307    -0.74300
C616        C  0.53139930  0.13112631  0.27305529     0.77500
C617        C  0.53942872  0.15006201  0.34787022     0.78000
C618        C  0.49323375  0.19204578  0.29385467     0.77000
C619        C  0.46720938  0.14904368  0.35980916     0.77300
C620        C  0.50044549  0.08106624  0.32465980     0.78500
C621        C  0.45023376  0.12762136  0.28816469     0.77500
Zn622      Zn  0.50380490  0.86185055  0.28623492     1.49700
Zn623      Zn  0.52219958  0.88390468  0.32479986     1.49400
Zn624      Zn  0.47655157  0.88446865  0.31965529     1.49100
Zn625      Zn  0.49799704  0.84162709  0.32889056     1.49500
O626        O  0.50007903  0.86776616  0.31486577    -1.83700
O627        O  0.53084761  0.87162442  0.27642034    -0.74400
O628        O  0.51616851  0.91457386  0.32720559    -0.74200
O629        O  0.45940870  0.88113047  0.29524430    -0.73700
O630        O  0.54459088  0.88104719  0.30549758    -0.74400
O631        O  0.47978978  0.87128680  0.27022900    -0.74000
O632        O  0.48287224  0.91518086  0.32404720    -0.74600
O633        O  0.47209538  0.84101898  0.34482351    -0.74000
O634        O  0.53288792  0.87148219  0.35013986    -0.74700
O635        O  0.46039997  0.87249973  0.34262950    -0.74100
O636        O  0.52007292  0.84020276  0.34996987    -0.74600
O637        O  0.49937684  0.81663823  0.30990310    -0.74500
O638        O  0.50475285  0.83205402  0.28078666    -0.74300
C639        C  0.54612801  0.87689629  0.28685800     0.77500
C640        C  0.49965212  0.92456673  0.32640042     0.78000
C641        C  0.46242764  0.87640829  0.27684778     0.77000
C642        C  0.45956006  0.85469358  0.35004929     0.77300
C643        C  0.53183267  0.85361753  0.35730336     0.78500
C644        C  0.50262984  0.81589300  0.29090287     0.77500
Zn645      Zn  0.65895117  0.16160723  0.99669955     1.49700
Zn646      Zn  0.61565498  0.16598738  0.01935251     1.49400
Zn647      Zn  0.63769158  0.20438136  0.99935148     1.49100
Zn648      Zn  0.61613043  0.17024052  0.97423463     1.49500
O649        O  0.63257470  0.17559395  0.99753912    -1.83700
O650        O  0.66055104  0.14211462  0.02065939    -0.74400
O651        O  0.61464712  0.18757136  0.03970126    -0.74200
O652        O  0.66718301  0.21051954  0.00097745    -0.73700
O653        O  0.62906766  0.14271599  0.03281866    -0.74400
O654        O  0.68371450  0.18171703  0.99710655    -0.74000
O655        O  0.62518219  0.21561181  0.02450824    -0.74600
O656        O  0.61874596  0.19289944  0.95513542    -0.74000
O657        O  0.58564550  0.16050412  0.01250662    -0.74700
O658        O  0.62862896  0.21867850  0.97421841    -0.74100
O659        O  0.58570755  0.16740066  0.97995918    -0.74600
O660        O  0.62727172  0.14606281  0.96047690    -0.74500
O661        O  0.65891414  0.14353534  0.97179443    -0.74300
C662        C  0.64703769  0.13577183  0.03294113     0.77500
C663        C  0.61773712  0.20652014  0.03973925     0.78000
C664        C  0.68378541  0.20097580  0.99940135     0.77000
C665        C  0.62277314  0.21153788  0.95736720     0.77300
C666        C  0.57601261  0.16320228  0.99606771     0.78500
C667        C  0.64472539  0.13790486  0.95996231     0.77500
Zn668      Zn  0.37816747  0.15315734  0.99656925     1.49700
Zn669      Zn  0.34536173  0.18142555  0.97417073     1.49400
Zn670      Zn  0.34665278  0.18184120  0.02023048     1.49100
Zn671      Zn  0.38424454  0.20001878  0.99631491     1.49500
O672        O  0.36391789  0.17897442  0.99681390    -1.83700
O673        O  0.36910714  0.13795161  0.97184085    -0.74400
O674        O  0.31850866  0.19513967  0.98121691    -0.74200
O675        O  0.34455641  0.15565860  0.03482669    -0.73700
O676        O  0.34228954  0.15476256  0.96021153    -0.74400
O677        O  0.36877245  0.13691908  0.02067998    -0.74000
O678        O  0.31923237  0.19430010  0.01448773    -0.74600
O679        O  0.38068461  0.21842195  0.02008216    -0.74000
O680        O  0.35813237  0.19867320  0.95350630    -0.74700
O681        O  0.35891481  0.20132418  0.03904707    -0.74100
O682        O  0.38236020  0.21490764  0.97023397    -0.74600
O683        O  0.41306326  0.18905723  0.99738946    -0.74500
O684        O  0.40964584  0.15583779  0.99668051    -0.74300
C685        C  0.35435719  0.13975397  0.95957017     0.77500
C686        C  0.31056226  0.19958162  0.99820373     0.78000
C687        C  0.35504529  0.13954137  0.03400331     0.77000
C688        C  0.37112682  0.21591004  0.03661293     0.77300
C689        C  0.37231439  0.21156734  0.95420049     0.78500
C690        C  0.42101426  0.17150823  0.99712593     0.77500
Zn691      Zn  0.49545883  0.33648733  0.16028434     1.49700
Zn692      Zn  0.48975802  0.29371214  0.14088837     1.49400
Zn693      Zn  0.47095676  0.33199535  0.11840268     1.49100
Zn694      Zn  0.51558693  0.32629983  0.11641118     1.49500
O695        O  0.49304813  0.32200711  0.13434635    -1.83700
O696        O  0.49608060  0.31760787  0.18582155    -0.74400
O697        O  0.46204632  0.28451633  0.13293140    -0.74200
O698        O  0.46234469  0.35828442  0.12984538    -0.73700
O699        O  0.49238804  0.28816137  0.17044562    -0.74400
O700        O  0.47259944  0.35696080  0.16196134    -0.74000
O701        O  0.44813200  0.31300742  0.12188243    -0.74600
O702        O  0.50886756  0.33021258  0.08596508    -0.74000
O703        O  0.51236220  0.27747227  0.12896315    -0.74700
O704        O  0.47591247  0.33449168  0.08771290    -0.74100
O705        O  0.53278945  0.30220695  0.11873809    -0.74600
O706        O  0.53181782  0.34914930  0.12720200    -0.74500
O707        O  0.52113363  0.35325037  0.15889545    -0.74300
C708        C  0.49501513  0.29828953  0.18651745     0.77500
C709        C  0.44678361  0.29444503  0.12669342     0.78000
C710        C  0.46243237  0.36515361  0.14779093     0.77000
C711        C  0.49198084  0.33320395  0.07711559     0.77300
C712        C  0.52952624  0.28373056  0.12285043     0.78500
C713        C  0.53324298  0.35752496  0.14447435     0.77500
Zn714      Zn  0.47230148  0.32364214  0.88028053     1.49700
Zn715      Zn  0.50286632  0.29285988  0.85949328     1.49400
Zn716      Zn  0.49583246  0.33438097  0.83831849     1.49100
Zn717      Zn  0.51571674  0.33393599  0.88279452     1.49500
O718        O  0.49673997  0.32096921  0.86487572    -1.83700
O719        O  0.45687788  0.29885475  0.87505971    -0.74400
O720        O  0.50416166  0.28630528  0.82990336    -0.74200
O721        O  0.47029580  0.35126662  0.83797349    -0.73700
O722        O  0.47984521  0.27500389  0.86892248    -0.74400
O723        O  0.45700546  0.34673401  0.86856750    -0.74000
O724        O  0.49681383  0.31427518  0.81332638    -0.74600
O725        O  0.52437676  0.35992112  0.87049579    -0.74000
O726        O  0.53044341  0.28683469  0.87057229    -0.74700
O727        O  0.51872452  0.35534107  0.83756690    -0.74100
O728        O  0.53995466  0.31652086  0.88356229    -0.74600
O729        O  0.50685296  0.33792309  0.91247213    -0.74500
O730        O  0.47538205  0.32709866  0.91143308    -0.74300
C731        C  0.46156767  0.28048738  0.87183081     0.77500
C732        C  0.50085796  0.29530550  0.81329604     0.78000
C733        C  0.45726022  0.35567544  0.85154265     0.77000
C734        C  0.52663021  0.36526018  0.85216557     0.77300
C735        C  0.54363703  0.29827286  0.87877206     0.78500
C736        C  0.49041936  0.33361988  0.92162261     0.77500
Zn737      Zn  0.15520455  0.37557990  0.99736338     1.49700
Zn738      Zn  0.18283650  0.34430681  0.02158056     1.49400
Zn739      Zn  0.18325168  0.34162617  0.97571973     1.49100
Zn740      Zn  0.20197101  0.38115003  0.99790659     1.49500
O741        O  0.18074329  0.36103144  0.99783852    -1.83700
O742        O  0.13813892  0.36514538  0.02033671    -0.74400
O743        O  0.19902923  0.31862499  0.01684142    -0.74200
O744        O  0.15675533  0.33966980  0.96061531    -0.73700
O745        O  0.15532257  0.33909288  0.03302744    -0.74400
O746        O  0.14008954  0.36656400  0.97242200    -0.74000
O747        O  0.19512908  0.31407708  0.98400478    -0.74600
O748        O  0.22008076  0.37581968  0.97422096    -0.74000
O749        O  0.19747001  0.35952196  0.04248905    -0.74700
O750        O  0.20381142  0.35219001  0.95658683    -0.74100
O751        O  0.21680167  0.38025973  0.02441021    -0.74600
O752        O  0.19136744  0.41035125  0.99604124    -0.74500
O753        O  0.15815979  0.40724334  0.99888124    -0.74300
C754        C  0.13947875  0.35002040  0.03221331     0.77500
C755        C  0.20229945  0.30833390  0.00091829     0.78000
C756        C  0.14153854  0.35155298  0.96033996     0.77000
C757        C  0.21815494  0.36484601  0.95848144     0.77300
C758        C  0.21135210  0.37269919  0.04126098     0.78500
C759        C  0.17391730  0.41847801  0.99756818     0.77500
Zn760      Zn  0.15352609  0.61715585  0.00163310     1.49700
Zn761      Zn  0.18013509  0.64930729  0.97659117     1.49400
Zn762      Zn  0.18226697  0.65196033  0.02216649     1.49100
Zn763      Zn  0.20009000  0.61197950  0.99996820     1.49500
O764        O  0.17892681  0.63223594  0.00035349    -1.83700
O765        O  0.13649522  0.62550115  0.97768017    -0.74400
O766        O  0.19494315  0.67620641  0.98064880    -0.74200
O767        O  0.15686200  0.65253661  0.03909726    -0.73700
O768        O  0.15244920  0.65220155  0.96475808    -0.74400
O769        O  0.13854941  0.62703392  0.02645440    -0.74000
O770        O  0.19317417  0.67998076  0.01363038    -0.74600
O771        O  0.21998891  0.61926125  0.02127457    -0.74000
O772        O  0.19620549  0.63536635  0.95583780    -0.74700
O773        O  0.20465939  0.64294808  0.03955491    -0.74100
O774        O  0.21363228  0.61235630  0.97295029    -0.74600
O775        O  0.19021980  0.58258389  0.00416434    -0.74500
O776        O  0.15696643  0.58547985  0.00221999    -0.74300
C777        C  0.13730338  0.64024935  0.96527376     0.77500
C778        C  0.19915081  0.68634640  0.99644562     0.78000
C779        C  0.14123185  0.64118260  0.03933057     0.77000
C780        C  0.21943578  0.63110899  0.03645022     0.77300
C781        C  0.20949286  0.62158612  0.95661779     0.78500
C782        C  0.17274991  0.57432603  0.00368150     0.77500
Zn783      Zn  0.32779649  0.52430158  0.11298304     1.49700
Zn784      Zn  0.28747160  0.51036543  0.13584625     1.49400
Zn785      Zn  0.31890421  0.48045740  0.11571863     1.49100
Zn786      Zn  0.32986867  0.50426700  0.15680174     1.49500
O787        O  0.31579927  0.50490778  0.13076477    -1.83700
O788        O  0.31039048  0.54817567  0.11411899    -0.74400
O789        O  0.27032932  0.48693965  0.12605862    -0.74200
O790        O  0.32144415  0.48383414  0.08479797    -0.73700
O791        O  0.28040193  0.53817476  0.12553330    -0.74400
O792        O  0.33009470  0.51595281  0.08301590    -0.74000
O793        O  0.29470429  0.46415295  0.12120671    -0.74600
O794        O  0.34699780  0.47896711  0.15732406    -0.74000
O795        O  0.28147905  0.51156775  0.16546894    -0.74700
O796        O  0.34268311  0.46584019  0.12666948    -0.74100
O797        O  0.31019054  0.50584783  0.18155009    -0.74600
O798        O  0.35039005  0.52732138  0.15742405    -0.74500
O799        O  0.35373635  0.53395789  0.12458795    -0.74300
C800        C  0.29216468  0.55192582  0.11882832     0.77500
C801        C  0.27618367  0.46870230  0.12358974     0.78000
C802        C  0.32631691  0.49919336  0.07420850     0.77000
C803        C  0.35170067  0.46619341  0.14364417     0.77300
C804        C  0.29113128  0.50929960  0.18188131     0.78500
C805        C  0.35931000  0.53631987  0.14285046     0.77500
Zn806      Zn  0.31911790  0.51911879  0.87877753     1.49700
Zn807      Zn  0.32665562  0.47529772  0.87817979     1.49400
Zn808      Zn  0.28665014  0.49168686  0.85757421     1.49100
Zn809      Zn  0.32822444  0.49932357  0.83579600     1.49500
O810        O  0.31494651  0.49619074  0.86207557    -1.83700
O811        O  0.32038455  0.51335497  0.90928732    -0.74400
O812        O  0.30897745  0.45134477  0.87541601    -0.74200
O813        O  0.27076991  0.51581979  0.86732304    -0.73700
O814        O  0.32870850  0.48111499  0.90885411    -0.74400
O815        O  0.29621835  0.53695301  0.87368542    -0.74000
O816        O  0.27878163  0.46432586  0.86833942    -0.74600
O817        O  0.30772573  0.49917978  0.81136247    -0.74000
O818        O  0.35311994  0.46819465  0.86588041    -0.74700
O819        O  0.28004521  0.49085323  0.82819109    -0.74100
O820        O  0.34855465  0.47641608  0.83343501    -0.74600
O821        O  0.34600186  0.52463595  0.83688883    -0.74500
O822        O  0.34376558  0.53332875  0.86928495    -0.74300
C823        C  0.32480697  0.49719596  0.91879604     0.77500
C824        C  0.29002211  0.44931970  0.87287941     0.78000
C825        C  0.27759800  0.53360257  0.87046823     0.77000
C826        C  0.28884419  0.49469113  0.81156570     0.77300
C827        C  0.35840645  0.46745854  0.84738560     0.78500
C828        C  0.35197271  0.53514148  0.85196774     0.77500
Zn829      Zn  0.97521729  0.65544130  0.18989529     1.49700
Zn830      Zn  0.02109842  0.65664090  0.18920228     1.49400
Zn831      Zn  0.99943896  0.61831452  0.21061471     1.49100
Zn832      Zn  0.99861260  0.62177099  0.16399364     1.49500
O833        O  0.99862846  0.63768579  0.18855776    -1.83700
O834        O  0.98103202  0.68265200  0.20351910    -0.74400
O835        O  0.04104873  0.64631543  0.20861916    -0.74200
O836        O  0.97361766  0.62109206  0.22642314    -0.73700
O837        O  0.01426802  0.68441936  0.20079794    -0.74400
O838        O  0.95542233  0.64231347  0.20776539    -0.74000
O839        O  0.02444069  0.62375328  0.22727513    -0.74600
O840        O  0.99815997  0.59058881  0.16810117    -0.74000
O841        O  0.03516788  0.65753580  0.16226141    -0.74700
O842        O  0.00024904  0.58830986  0.20125932    -0.74100
O843        O  0.02308374  0.62964423  0.14780466    -0.74600
O844        O  0.97459457  0.63025232  0.14766260    -0.74500
O845        O  0.96160522  0.65750311  0.16254055    -0.74300
C846        C  0.99761003  0.69184069  0.20702937     0.77500
C847        C  0.04019061  0.63429408  0.22351883     0.78000
C848        C  0.95689256  0.62966571  0.22207069     0.77000
C849        C  0.99916371  0.57970827  0.18401078     0.77300
C850        C  0.03539781  0.64450970  0.14805537     0.78500
C851        C  0.96197579  0.64481877  0.14798790     0.77500
Zn852      Zn  0.97833555  0.38296335  0.17662005     1.49700
Zn853      Zn  0.00063065  0.34078470  0.16665713     1.49400
Zn854      Zn  0.02340725  0.38397090  0.17183218     1.49100
Zn855      Zn  0.00531724  0.36039355  0.20951557     1.49500
O856        O  0.00195549  0.36667582  0.18121817    -1.83700
O857        O  0.96370559  0.37249338  0.15233725    -0.74400
O858        O  0.02421176  0.34022986  0.14694081    -0.74200
O859        O  0.01656591  0.41474872  0.17084953    -0.73700
O860        O  0.97581819  0.34122644  0.14858103    -0.74400
O861        O  0.98352182  0.41387526  0.17523142    -0.74000
O862        O  0.03311663  0.37283082  0.14551082    -0.74600
O863        O  0.03207446  0.37065794  0.21959915    -0.74000
O864        O  0.00013887  0.31527680  0.18575930    -0.74700
O865        O  0.04621662  0.38101345  0.19093452    -0.74100
O866        O  0.00583208  0.33059110  0.21488280    -0.74600
O867        O  0.98081769  0.36949313  0.22492117    -0.74500
O868        O  0.96027621  0.37784903  0.19968150    -0.74300
C869        C  0.96346006  0.35523186  0.14373247     0.77500
C870        C  0.03388871  0.35479149  0.13867318     0.78000
C871        C  0.99977917  0.42410130  0.17305180     0.77000
C872        C  0.04741673  0.37667688  0.20957522     0.77300
C873        C  0.00297834  0.31445249  0.20487175     0.78500
C874        C  0.96326594  0.37358846  0.21813211     0.77500
Zn875      Zn  0.15465105  0.52807040  0.31714453     1.49700
Zn876      Zn  0.15615992  0.48210568  0.31323634     1.49400
Zn877      Zn  0.12186341  0.50226075  0.34166688     1.49100
Zn878      Zn  0.11766909  0.50561293  0.29469190     1.49500
O879        O  0.13721392  0.50445489  0.31664620    -1.83700
O880        O  0.18234109  0.52365876  0.30423028    -0.74400
O881        O  0.15834523  0.46609669  0.33908939    -0.74200
O882        O  0.12916503  0.52583370  0.35998906    -0.73700
O883        O  0.18340750  0.49045175  0.30114733    -0.74400
O884        O  0.15543845  0.54045103  0.34490543    -0.74000
O885        O  0.13077339  0.47671360  0.35545420    -0.74600
O886        O  0.08800410  0.50436762  0.30451452    -0.74000
O887        O  0.14494804  0.46340087  0.29273183    -0.74700
O888        O  0.09077734  0.50145749  0.33761705    -0.74100
O889        O  0.12188948  0.48158138  0.27644104    -0.74600
O890        O  0.12117249  0.53199888  0.27986932    -0.74500
O891        O  0.14259253  0.54876800  0.29962856    -0.74300
C892        C  0.19115557  0.50778357  0.29779705     0.77500
C893        C  0.14572474  0.46465047  0.35361562     0.78000
C894        C  0.14315184  0.53917350  0.35971549     0.77000
C895        C  0.07971384  0.50257906  0.32185687     0.77300
C896        C  0.13224647  0.46545190  0.27851668     0.78500
C897        C  0.13052107  0.54814674  0.28478293     0.77500
Zn898      Zn  0.88484159  0.47510241  0.33116086     1.49700
Zn899      Zn  0.86084426  0.49392900  0.29404611     1.49400
Zn900      Zn  0.84136923  0.49627603  0.33726534     1.49100
Zn901      Zn  0.88263378  0.52018314  0.32774057     1.49500
O902        O  0.86703860  0.49637248  0.32244725    -1.83700
O903        O  0.88251967  0.45292790  0.31121237    -0.74400
O904        O  0.83106686  0.49227559  0.28888767    -0.74200
O905        O  0.84153066  0.47132841  0.35530476    -0.73700
O906        O  0.87190832  0.46793792  0.28315252    -0.74400
O907        O  0.87444830  0.46382549  0.35707088    -0.74000
O908        O  0.81588307  0.49658345  0.31839286    -0.74600
O909        O  0.87222977  0.53313855  0.35314300    -0.74000
O910        O  0.86941335  0.51907589  0.27930041    -0.74700
O911        O  0.84124103  0.52030937  0.35648977    -0.74100
O912        O  0.87686189  0.53891972  0.30542867    -0.74600
O913        O  0.91368894  0.51565692  0.32811703    -0.74500
O914        O  0.91516384  0.48260792  0.33233629    -0.74300
C915        C  0.87827586  0.45238225  0.29251624     0.77500
C916        C  0.81499108  0.49407017  0.29924649     0.78000
C917        C  0.85625120  0.46150427  0.36304364     0.77000
C918        C  0.85507230  0.53261695  0.36201496     0.77300
C919        C  0.87314440  0.53645100  0.28676743     0.78500
C920        C  0.92415491  0.49954358  0.33005627     0.77500
Zn921      Zn  0.20606853  0.00517601  0.63719138     1.49700
Zn922      Zn  0.16569713  0.99454244  0.65980311     1.49400
Zn923      Zn  0.16441197  0.01904522  0.61741844     1.49100
Zn924      Zn  0.17538692  0.97515195  0.61659272     1.49500
O925        O  0.17797733  0.99872960  0.63312920    -1.83700
O926        O  0.21334620  0.00736703  0.66649552    -0.74400
O927        O  0.14432681  0.01637752  0.66359960    -0.74200
O928        O  0.18156490  0.04371428  0.61705130    -0.73700
O929        O  0.18698457  0.99537498  0.68327286    -0.74400
O930        O  0.21217755  0.03181404  0.62420356    -0.74000
O931        O  0.13852307  0.02603213  0.63174016    -0.74600
O932        O  0.17181396  0.98033937  0.58611800    -0.74000
O933        O  0.14950315  0.96809451  0.65914619    -0.74700
O934        O  0.16116953  0.01199725  0.58708031    -0.74100
O935        O  0.15229509  0.95917179  0.62682365    -0.74600
O936        O  0.20001026  0.95908705  0.62105314    -0.74500
O937        O  0.22364378  0.98209512  0.62788879    -0.74300
C938        C  0.20530724  0.00173049  0.68301488     0.77500
C939        C  0.13383121  0.02580926  0.65045396     0.78000
C940        C  0.20061806  0.04604832  0.61828745     0.77000
C941        C  0.16571914  0.99616496  0.57698600     0.77300
C942        C  0.14430648  0.95703469  0.64417944     0.78500
C943        C  0.21829328  0.96389499  0.62448329     0.77500
Zn944      Zn  0.16553964  0.00740813  0.33924827     1.49700
Zn945      Zn  0.17016163  0.97889219  0.37992681     1.49400
Zn946      Zn  0.20757186  0.00078608  0.35970675     1.49100
Zn947      Zn  0.17340036  0.02492097  0.38415306     1.49500
O948        O  0.17898973  0.00291799  0.36553101    -1.83700
O949        O  0.14465501  0.98506801  0.33607383    -0.74400
O950        O  0.19185517  0.95805568  0.37885053    -0.74200
O951        O  0.21385513  0.99941906  0.33024617    -0.73700
O952        O  0.14679262  0.96737317  0.36479697    -0.74400
O953        O  0.18536966  0.00665513  0.31442066    -0.74000
O954        O  0.21936605  0.97572462  0.37120748    -0.74600
O955        O  0.19759171  0.04284673  0.38498359    -0.74000
O956        O  0.16456120  0.98316188  0.41058038    -0.74700
O957        O  0.22181000  0.02500375  0.36992458    -0.74100
O958        O  0.16775206  0.01626981  0.41345413    -0.74600
O959        O  0.15053117  0.04139291  0.37324278    -0.74500
O960        O  0.14964784  0.03391843  0.34038887    -0.74300
C961        C  0.13889353  0.97068396  0.34757405     0.77500
C962        C  0.21089813  0.95934293  0.37660341     0.78000
C963        C  0.20425155  0.00237043  0.31395172     0.77000
C964        C  0.21580650  0.04075341  0.37914213     0.77300
C965        C  0.16490813  0.99903066  0.42161363     0.78500
C966        C  0.14379386  0.04444787  0.35549380     0.77500
Zn967      Zn  0.33984668  0.15807579  0.50400559     1.49700
Zn968      Zn  0.34235788  0.11465448  0.48226722     1.49400
Zn969      Zn  0.32739840  0.11564607  0.52516338     1.49100
Zn970      Zn  0.29994304  0.13601368  0.49225939     1.49500
O971        O  0.32726683  0.13141082  0.50085311    -1.83700
O972        O  0.36227896  0.16055689  0.48285189    -0.74400
O973        O  0.34525394  0.08476441  0.49049419    -0.74200
O974        O  0.34942781  0.12657014  0.54268164    -0.73700
O975        O  0.36882120  0.12803038  0.47649133    -0.74400
O976        O  0.35516615  0.15747849  0.53036335    -0.74000
O977        O  0.33097632  0.08478938  0.52058589    -0.74600
O978        O  0.28027345  0.12512788  0.51272586    -0.74000
O979        O  0.32740017  0.11373690  0.45633642    -0.74700
O980        O  0.30104357  0.12024626  0.53868524    -0.74100
O981        O  0.29666724  0.12505202  0.46446452    -0.74600
O982        O  0.29266439  0.16538443  0.49106061    -0.74500
O983        O  0.31907421  0.18232683  0.50253802    -0.74300
C984        C  0.37348614  0.14670916  0.47527397     0.77500
C985        C  0.33883076  0.07506088  0.50585333     0.78000
C986        C  0.35865176  0.14351106  0.54318531     0.77000
C987        C  0.28333207  0.12233799  0.53150274     0.77300
C988        C  0.30912489  0.11752386  0.45183399     0.78500
C989        C  0.30074306  0.18203407  0.49624193     0.77500
Zn990      Zn  0.32158068  0.84509229  0.52605058     1.49700
Zn991      Zn  0.34883768  0.87652229  0.49980691     1.49400
Zn992      Zn  0.31853274  0.84411058  0.47966791     1.49100
Zn993      Zn  0.30266602  0.88338493  0.50301766     1.49500
O994        O  0.32301805  0.86243870  0.50220999    -1.83700
O995        O  0.34953533  0.84278718  0.53853249    -0.74400
O996        O  0.36324212  0.86597717  0.47494640    -0.74200
O997        O  0.30381621  0.81804256  0.48788982    -0.73700
O998        O  0.36573774  0.86814783  0.52333097    -0.74400
O999        O  0.30678922  0.81784538  0.52111473    -0.74000
O1000       O  0.34470324  0.83972288  0.46461810    -0.74600
O1001       O  0.28555350  0.88137821  0.47842585    -0.74000
O1002       O  0.34701309  0.90808123  0.50004375    -0.74700
O1003       O  0.30006904  0.85724531  0.46004229    -0.74100
O1004       O  0.31409191  0.91220911  0.50365380    -0.74600
O1005       O  0.28630525  0.88060712  0.52807362    -0.74500
O1006       O  0.30446244  0.85915365  0.54649549    -0.74300
C1007       C  0.36487601  0.85445141  0.53681099     0.77500
C1008       C  0.36049162  0.85078438  0.46333742     0.78000
C1009       C  0.29988005  0.80992830  0.50492557     0.77000
C1010       C  0.28719222  0.87133419  0.46209833     0.77300
C1011       C  0.33177012  0.91979704  0.50221484     0.78500
C1012       C  0.29025244  0.87198071  0.54476672     0.77500
Zn1013     Zn  0.98114562  0.17969865  0.61933594     1.49700
Zn1014     Zn  0.02566596  0.17002133  0.61800508     1.49400
Zn1015     Zn  0.01151907  0.20931139  0.64190435     1.49100
Zn1016     Zn  0.00302717  0.16643117  0.66094554     1.49500
O1017       O  0.00531619  0.18140088  0.63539937    -1.83700
O1018       O  0.98643651  0.17827249  0.58834037    -0.74400
O1019       O  0.04978626  0.18750524  0.61957741    -0.74200
O1020       O  0.98916817  0.22747693  0.63244597    -0.73700
O1021       O  0.01844702  0.16891494  0.58764093    -0.74400
O1022       O  0.96551533  0.20460940  0.62506116    -0.74000
O1023       O  0.03907292  0.21697534  0.63159398    -0.74600
O1024       O  0.00341786  0.18541278  0.68642887    -0.74000
O1025       O  0.03425640  0.14348323  0.62923268    -0.74700
O1026       O  0.01185572  0.21425749  0.67171951    -0.74100
O1027       O  0.02532550  0.14494242  0.66162607    -0.74600
O1028       O  0.97705225  0.15021756  0.66005645    -0.74500
O1029       O  0.96449706  0.15633007  0.62944224    -0.74300
C1030       C  0.00228127  0.17363246  0.57824329     0.77500
C1031       C  0.05298178  0.20586392  0.62419568     0.78000
C1032       C  0.97085188  0.22268873  0.62889735     0.77000
C1033       C  0.00777336  0.20426940  0.68757969     0.77300
C1034       C  0.03493430  0.13645711  0.64712398     0.78500
C1035       C  0.96407765  0.14684671  0.64621690     0.77500
Zn1036     Zn  0.97628633  0.17239267  0.38300332     1.49700
Zn1037     Zn  0.99871127  0.17094590  0.33979510     1.49400
Zn1038     Zn  0.98621542  0.21313212  0.35785809     1.49100
Zn1039     Zn  0.01937060  0.18604679  0.38099222     1.49500
O1040       O  0.99504514  0.18585542  0.36516093    -1.83700
O1041       O  0.96923462  0.14542276  0.37128234    -0.74400
O1042       O  0.99811249  0.18954955  0.31429152    -0.74200
O1043       O  0.95773058  0.21778782  0.36817023    -0.73700
O1044       O  0.97709800  0.14895281  0.33870709    -0.74400
O1045       O  0.95080558  0.18796933  0.38209802    -0.74000
O1046       O  0.98550430  0.21762188  0.32756201    -0.74600
O1047       O  0.03217635  0.21219337  0.37519840    -0.74000
O1048       O  0.02537930  0.15595739  0.34095469    -0.74700
O1049       O  0.00728530  0.23353304  0.36709326    -0.74100
O1050       O  0.03793044  0.16425631  0.37094180    -0.74600
O1051       O  0.01546272  0.18350937  0.41192570    -0.74500
O1052       O  0.98460736  0.17097767  0.41323848    -0.74300
C1053       C  0.96827396  0.13939540  0.35301263     0.77500
C1054       C  0.99174306  0.20771547  0.31229163     0.78000
C1055       C  0.94536551  0.20550860  0.37650657     0.77000
C1056       C  0.02583251  0.22980094  0.37086852     0.77300
C1057       C  0.03882110  0.15408134  0.35460570     0.78500
C1058       C  0.00062876  0.17681022  0.42231861     0.77500
Zn1059     Zn  0.15757021  0.31069507  0.46744864     1.49700
Zn1060     Zn  0.11932069  0.28810527  0.48746004     1.49400
Zn1061     Zn  0.15578151  0.30793640  0.51316600     1.49100
Zn1062     Zn  0.12239471  0.33488993  0.49033424     1.49500
O1063       O  0.13845987  0.31031925  0.48973654    -1.83700
O1064       O  0.14447696  0.29622577  0.44485953    -0.74400
O1065       O  0.12404408  0.26879151  0.51049365    -0.74200
O1066       O  0.18398110  0.29647976  0.50708998    -0.73700
O1067       O  0.12210902  0.27580555  0.45974519    -0.74400
O1068       O  0.18459110  0.29639937  0.47377394    -0.74000
O1069       O  0.14369425  0.28710289  0.53075352    -0.74600
O1070       O  0.13029703  0.35082048  0.51491248    -0.74000
O1071       O  0.08934956  0.29702832  0.48921755    -0.74700
O1072       O  0.15632175  0.33443361  0.52853496    -0.74100
O1073       O  0.09122636  0.33035425  0.48997697    -0.74600
O1074       O  0.13106414  0.35220964  0.46698195    -0.74500
O1075       O  0.16048769  0.33916155  0.45685587    -0.74300
C1076       C  0.13085976  0.28271566  0.44401187     0.77500
C1077       C  0.13259758  0.27172693  0.52750811     0.78000
C1078       C  0.19273746  0.29169062  0.49059412     0.77000
C1079       C  0.14442941  0.34963632  0.52792278     0.77300
C1080       C  0.08055309  0.31421540  0.48972367     0.78500
C1081       C  0.14713064  0.35310070  0.45632137     0.77500
Zn1082     Zn  0.88231960  0.31237865  0.47605114     1.49700
Zn1083     Zn  0.88668473  0.32539277  0.51905847     1.49400
Zn1084     Zn  0.84261266  0.32819834  0.49981655     1.49100
Zn1085     Zn  0.86080020  0.28550665  0.50962400     1.49500
O1086       O  0.86776854  0.31266718  0.50112046    -1.83700
O1087       O  0.91371480  0.31327356  0.47887291    -0.74400
O1088       O  0.87663215  0.35259873  0.52689374    -0.74200
O1089       O  0.84283302  0.34376778  0.47364179    -0.73700
O1090       O  0.91638849  0.32547205  0.50972268    -0.74400
O1091       O  0.87210667  0.33539797  0.45922103    -0.74000
O1092       O  0.84345548  0.34972817  0.52198579    -0.74600
O1093       O  0.83069001  0.28147728  0.51176130    -0.74000
O1094       O  0.88646417  0.30993535  0.54433155    -0.74700
O1095       O  0.81670435  0.31015757  0.50174293    -0.74100
O1096       O  0.87238658  0.28025185  0.53722455    -0.74600
O1097       O  0.86866844  0.26542711  0.48796202    -0.74500
O1098       O  0.87457577  0.28684838  0.46260607    -0.74300
C1099       C  0.92478729  0.31925557  0.49351254     0.77500
C1100       C  0.85864465  0.35889482  0.52971041     0.78000
C1101       C  0.85596315  0.34594531  0.45966221     0.77000
C1102       C  0.81503348  0.29172423  0.50739013     0.77300
C1103       C  0.88117078  0.29224989  0.54950980     0.78500
C1104       C  0.87082793  0.26917528  0.46920058     0.77500
C1105       C  0.02552874  0.33411626  0.49155124    -0.27200
C1106       C  0.01404757  0.31622400  0.49051746     0.02400
C1107       C  0.02458848  0.29772296  0.48917321     0.30500
C1108       C  0.04596622  0.29731948  0.48892538    -0.19000
C1109       C  0.05759704  0.31523365  0.48994468    -0.28400
C1110       C  0.04690515  0.33378404  0.49109373     0.44500
C1111       C  0.99120057  0.31702006  0.49116210     0.05700
O1112       O  0.01413130  0.27983451  0.48835464    -0.56900
H1113       H  0.05345465  0.28279251  0.48798422     0.18600
O1114       O  0.05711960  0.35179700  0.49202927    -0.63600
H1115       H  0.01784549  0.34854293  0.49253960     0.17100
C1116       C  0.98084389  0.32465605  0.50815684     0.29300
C1117       C  0.95950513  0.32532588  0.50860329    -0.24500
C1118       C  0.94769636  0.31868381  0.49213754    -0.23800
C1119       C  0.95816115  0.31106107  0.47504795     0.40800
C1120       C  0.97955438  0.31024085  0.47471712    -0.26300
O1121       O  0.99146061  0.33080787  0.52482225    -0.58200
H1122       H  0.95218863  0.33104215  0.52208017     0.16400
O1123       O  0.94772314  0.30449899  0.45843073    -0.59600
H1124       H  0.98710912  0.30439108  0.46142378     0.14900
H1125       H  0.05805371  0.35651673  0.47786111     0.46700
H1126       H  0.99234336  0.34572169  0.52367636     0.42100
H1127       H  0.94600828  0.28973800  0.46040899     0.45500
H1128       H  0.01195623  0.27589932  0.50262924     0.37000
C1129       C  0.07688629  0.25176771  0.36561851    -0.27200
C1130       C  0.07678427  0.26482290  0.38219778     0.02400
C1131       C  0.05828703  0.27041555  0.39123170     0.30500
C1132       C  0.04040079  0.26090209  0.38524145    -0.19000
C1133       C  0.04105855  0.24576031  0.37053262    -0.28400
C1134       C  0.05905464  0.24229892  0.35965091     0.44500
C1135       C  0.09563513  0.26824004  0.39329589     0.05700
O1136       O  0.05792577  0.28332506  0.40745457    -0.56900
H1137       H  0.02663756  0.26355702  0.39373791     0.18600
O1138       O  0.05985203  0.22771962  0.34493098    -0.63600
H1139       H  0.09106627  0.24739531  0.35865562     0.17100
C1140       C  0.10344181  0.25249462  0.40526703     0.29300
C1141       C  0.11680668  0.25696780  0.42088986    -0.24500
C1142       C  0.12292659  0.27692969  0.42423709    -0.23800
C1143       C  0.11711672  0.29222443  0.41057757     0.40800
C1144       C  0.10322133  0.28784062  0.39536803    -0.26300
O1145       O  0.09615059  0.23316351  0.40343073    -0.58200
H1146       H  0.12117293  0.24513523  0.43130244     0.16400
O1147       O  0.12261014  0.31198202  0.41371457    -0.59600
H1148       H  0.09716185  0.30000445  0.38626617     0.14900
H1149       H  0.05453596  0.23433993  0.33262439     0.46700
H1150       H  0.10533174  0.22645068  0.39366290     0.42100
H1151       H  0.13492229  0.31398934  0.40539250     0.45500
H1152       H  0.05950382  0.27457116  0.41949261     0.37000
C1153       C  0.89261520  0.20379228  0.39759563    -0.27200
C1154       C  0.88988103  0.22424361  0.40215056     0.02400
C1155       C  0.90294763  0.23877452  0.39361335     0.30500
C1156       C  0.92020289  0.23251635  0.38322047    -0.19000
C1157       C  0.92450966  0.21188447  0.38119433    -0.28400
C1158       C  0.90967418  0.19754451  0.38686675     0.44500
C1159       C  0.87795978  0.22989504  0.42000478     0.05700
O1160       O  0.90068531  0.25892577  0.39798103    -0.56900
H1161       H  0.93115033  0.24379848  0.37860053     0.18600
O1162       O  0.91255331  0.17725820  0.38366805    -0.63600
H1163       H  0.88251759  0.19254590  0.40392632     0.17100
C1164       C  0.86354453  0.24538564  0.41889813     0.29300
C1165       C  0.85950816  0.25697735  0.43601783    -0.24500
C1166       C  0.86954008  0.25297043  0.45424122    -0.23800
C1167       C  0.88150061  0.23555928  0.45605188     0.40800
C1168       C  0.88552939  0.22397098  0.43889511    -0.26300
O1169       O  0.85544217  0.25091455  0.40069660    -0.58200
H1170       H  0.84994939  0.27020588  0.43461696     0.16400
O1171       O  0.89129771  0.23123131  0.47375729    -0.59600
H1172       H  0.89663417  0.21196887  0.43989863     0.14900
H1173       H  0.90760956  0.17474555  0.36977407     0.46700
H1174       H  0.84201157  0.24426248  0.40023515     0.42100
H1175       H  0.90458724  0.23811044  0.47272563     0.45500
H1176       H  0.89373249  0.26473883  0.38609080     0.37000
C1177       C  0.10496436  0.21030370  0.60194696    -0.27200
C1178       C  0.10516181  0.23092153  0.59745998     0.02400
C1179       C  0.09079919  0.24385720  0.60631468     0.30500
C1180       C  0.07468300  0.23564359  0.61715864    -0.19000
C1181       C  0.07286083  0.21461364  0.61921784    -0.28400
C1182       C  0.08906953  0.20209128  0.61306067     0.44500
C1183       C  0.11599380  0.23773825  0.57945748     0.05700
O1184       O  0.09076175  0.26412536  0.60196082    -0.56900
H1185       H  0.06265045  0.24559451  0.62212066     0.18600
O1186       O  0.08858617  0.18157771  0.61602608    -0.63600
H1187       H  0.11611131  0.20032306  0.59525565     0.17100
C1188       C  0.13179754  0.25173927  0.58065158     0.29300
C1189       C  0.13833098  0.26150917  0.56315350    -0.24500
C1190       C  0.12880453  0.25779694  0.54448357    -0.23800
C1191       C  0.11413096  0.24237681  0.54320054     0.40800
C1192       C  0.10785139  0.23250719  0.56066839    -0.26300
O1193       O  0.14038347  0.25641654  0.59889854    -0.58200
H1194       H  0.15002968  0.27289666  0.56450010     0.16400
O1195       O  0.10461440  0.23794373  0.52536890    -0.59600
H1196       H  0.09554803  0.22170540  0.55974637     0.14900
H1197       H  0.09440887  0.17949180  0.62964071     0.46700
H1198       H  0.13462521  0.26970370  0.60275090     0.42100
H1199       H  0.11238133  0.22652935  0.51951079     0.45500
H1200       H  0.09715361  0.27069901  0.61378655     0.37000
C1201       C  0.91964181  0.24673412  0.62958348    -0.27200
C1202       C  0.92327685  0.26323768  0.61687222     0.02400
C1203       C  0.94338366  0.26896463  0.61249985     0.30500
C1204       C  0.95931177  0.25658528  0.61854482    -0.19000
C1205       C  0.95527429  0.23835405  0.62841381    -0.28400
C1206       C  0.93551752  0.23411105  0.63517444     0.44500
C1207       C  0.90682978  0.27072605  0.60397016     0.05700
O1208       O  0.94749110  0.28530592  0.60042334    -0.56900
H1209       H  0.97453259  0.26016500  0.61361882     0.18600
O1210       O  0.93135062  0.21679453  0.64576683    -0.63600
H1211       H  0.90427888  0.24244683  0.63336562     0.17100
C1212       C  0.89713269  0.25716571  0.59069424     0.29300
C1213       C  0.88703405  0.26453252  0.57383386    -0.24500
C1214       C  0.88661439  0.28530999  0.56988682    -0.23800
C1215       C  0.89400596  0.29893976  0.58461269     0.40800
C1216       C  0.90406026  0.29154227  0.60153702    -0.26300
O1217       O  0.89973409  0.23667613  0.59252114    -0.58200
H1218       H  0.88116006  0.25381200  0.56294888     0.16400
O1219       O  0.89300652  0.31946905  0.58186946    -0.59600
H1220       H  0.91119152  0.30207496  0.61184672     0.14900
H1221       H  0.93365637  0.22038174  0.66010917     0.46700
H1222       H  0.88724257  0.23172419  0.59918628     0.42100
H1223       H  0.87957226  0.32347863  0.58718984     0.45500
H1224       H  0.94773001  0.27992324  0.58645499     0.37000
C1225       C  0.01932014  0.18222709  0.47746756    -0.27200
C1226       C  0.00266723  0.17517563  0.48878573     0.02400
C1227       C  0.98557936  0.16834129  0.47789944     0.30500
C1228       C  0.98522052  0.16888626  0.45659158    -0.19000
C1229       C  0.00179429  0.17603948  0.44521416    -0.28400
C1230       C  0.01901632  0.18270174  0.45610851     0.44500
C1231       C  0.00300190  0.17511667  0.51174850     0.05700
O1232       O  0.96905444  0.16083386  0.48792660    -0.56900
H1233       H  0.97176029  0.16359981  0.44894181     0.18600
O1234       O  0.03579962  0.18966210  0.44611193    -0.63600
H1235       H  0.03260692  0.18779872  0.48520602     0.17100
C1236       C  0.01938396  0.16709406  0.52287207     0.29300
C1237       C  0.01884685  0.16656654  0.54423193    -0.24500
C1238       C  0.00219728  0.17408125  0.55531602    -0.23800
C1239       C  0.98601178  0.18248263  0.54414330     0.40800
C1240       C  0.98656045  0.18298584  0.52282334    -0.26300
O1241       O  0.03568478  0.15887949  0.51301564    -0.58200
H1242       H  0.03160095  0.16007925  0.55214067     0.16400
O1243       O  0.96970633  0.19083202  0.55385325    -0.59600
H1244       H  0.97398188  0.18976608  0.51488160     0.14900
H1245       H  0.03404995  0.20453240  0.44538323     0.46700
H1246       H  0.04684306  0.16872615  0.51488698     0.42100
H1247       H  0.95928301  0.18005047  0.55402107     0.45500
H1248       H  0.97240600  0.14652873  0.49084850     0.37000
C1249       C  0.23799135  0.25881040  0.47448537    -0.27200
C1250       C  0.24476866  0.25102260  0.49304009     0.02400
C1251       C  0.23563310  0.25838580  0.51084279     0.30500
C1252       C  0.21953741  0.27234911  0.50984478    -0.19000
C1253       C  0.21192895  0.27930706  0.49119808    -0.28400
C1254       C  0.22181033  0.27263955  0.47342957     0.44500
C1255       C  0.25994321  0.23400013  0.49343512     0.05700
O1256       O  0.24169664  0.25137456  0.52932828    -0.56900
H1257       H  0.21246570  0.27710559  0.52381462     0.18600
O1258       O  0.21563878  0.27924325  0.45483150    -0.63600
H1259       H  0.24496200  0.25370759  0.46058382     0.17100
C1260       C  0.25624366  0.21610096  0.48250260     0.29300
C1261       C  0.26989609  0.19987530  0.48332235    -0.24500
C1262       C  0.28777986  0.20075969  0.49486526    -0.23800
C1263       C  0.29172606  0.21881795  0.50561769     0.40800
C1264       C  0.27783888  0.23512443  0.50496725    -0.26300
O1265       O  0.23863082  0.21382418  0.47182605    -0.58200
H1266       H  0.26618416  0.18630022  0.47495284     0.16400
O1267       O  0.30857592  0.22042393  0.51751861    -0.59600
H1268       H  0.28105179  0.24868790  0.51355211     0.14900
H1269       H  0.20664447  0.26843699  0.44961224     0.46700
H1270       H  0.24255413  0.21519206  0.45744315     0.42100
H1271       H  0.31899458  0.22672879  0.50877945     0.45500
H1272       H  0.23321692  0.23928212  0.53192517     0.37000
C1273       C  0.35468980  0.97368551  0.50394663    -0.27200
C1274       C  0.33733578  0.98590962  0.50574090     0.02400
C1275       C  0.31833705  0.97621831  0.50620851     0.30500
C1276       C  0.31689892  0.95497355  0.50490325    -0.19000
C1277       C  0.33420526  0.94257770  0.50326162    -0.28400
C1278       C  0.35328734  0.95234961  0.50283237     0.44500
C1279       C  0.33901170  0.00868659  0.50656073     0.05700
O1280       O  0.30093989  0.98748419  0.50700127    -0.56900
H1281       H  0.30198435  0.94820791  0.50512380     0.18600
O1282       O  0.37075911  0.94126362  0.50169207    -0.63600
H1283       H  0.36948022  0.98072233  0.50357159     0.17100
C1284       C  0.33113491  0.01997740  0.52288910     0.29300
C1285       C  0.33155159  0.04132230  0.52265065    -0.24500
C1286       C  0.33990187  0.05216820  0.50630869    -0.23800
C1287       C  0.34838306  0.04074708  0.49024298     0.40800
C1288       C  0.34801261  0.01938806  0.49057068    -0.26300
O1289       O  0.32291285  0.01029356  0.53924242    -0.58200
H1290       H  0.32504234  0.04940746  0.53530618     0.16400
O1291       O  0.35706629  0.05022146  0.47399974    -0.59600
H1292       H  0.35432687  0.01112985  0.47792077     0.14900
H1293       H  0.37413198  0.94068866  0.48712086     0.46700
H1294       H  0.33452779  0.00720043  0.54815742     0.42100
H1295       H  0.34626157  0.05096189  0.46370553     0.45500
H1296       H  0.29542865  0.98540859  0.52076625     0.37000
C1297       C  0.24315179  0.08360630  0.40463720    -0.27200
C1298       C  0.26065598  0.08498178  0.39273592     0.02400
C1299       C  0.26274194  0.07276006  0.37555878     0.30500
C1300       C  0.24766054  0.05877529  0.37088033    -0.19000
C1301       C  0.23048810  0.05682685  0.38327769    -0.28400
C1302       C  0.22814998  0.06961437  0.40009780     0.44500
C1303       C  0.27779100  0.09628207  0.40101633     0.05700
O1304       O  0.27985309  0.07371006  0.36388440    -0.56900
H1305       H  0.24962381  0.04911156  0.35781287     0.18600
O1306       O  0.21191081  0.06777735  0.41288954    -0.63600
H1307       H  0.24172087  0.09247600  0.41832562     0.17100
C1308       C  0.27513319  0.11643275  0.40715719     0.29300
C1309       C  0.28707917  0.12418990  0.42264749    -0.24500
C1310       C  0.30166046  0.11195764  0.43187641    -0.23800
C1311       C  0.30624083  0.09285437  0.42370151     0.40800
C1312       C  0.29428889  0.08513624  0.40820775    -0.26300
O1313       O  0.25979054  0.12792069  0.39926147    -0.58200
H1314       H  0.28385153  0.13913874  0.42853506     0.16400
O1315       O  0.32069042  0.08070984  0.43227016    -0.59600
H1316       H  0.29638312  0.06954670  0.40360391     0.14900
H1317       H  0.21611350  0.05772122  0.42315533     0.46700
H1318       H  0.24933134  0.12871130  0.40998215     0.42100
H1319       H  0.31351206  0.07285596  0.44278081     0.45500
H1320       H  0.27736690  0.08486834  0.35422999     0.37000
C1321       C  0.27062142  0.88457846  0.40931927    -0.27200
C1322       C  0.25340353  0.89602300  0.41373337     0.02400
C1323       C  0.24582855  0.89681909  0.43351260     0.30500
C1324       C  0.25624734  0.88727356  0.44897394    -0.19000
C1325       C  0.27438126  0.87705857  0.44498601    -0.28400
C1326       C  0.28113058  0.87494311  0.42485350     0.44500
C1327       C  0.24526725  0.91010218  0.39888995     0.05700
O1328       O  0.22900818  0.90810315  0.43804854    -0.56900
H1329       H  0.25071306  0.88884905  0.46429642     0.18600
O1330       O  0.29861402  0.86471751  0.42035532    -0.63600
H1331       H  0.27653051  0.88411175  0.39406629     0.17100
C1332       C  0.25416989  0.92929707  0.39708070     0.29300
C1333       C  0.24330478  0.94500100  0.38831658    -0.24500
C1334       C  0.22350322  0.94175986  0.38147925    -0.23800
C1335       C  0.21542250  0.92200852  0.38155418     0.40800
C1336       C  0.22631243  0.90630818  0.39040549    -0.26300
O1337       O  0.27242885  0.93339587  0.40599025    -0.58200
H1338       H  0.24979949  0.96004531  0.38835063     0.16400
O1339       O  0.19645046  0.91813623  0.37417806    -0.59600
H1340       H  0.21939951  0.89152884  0.39192230     0.14900
H1341       H  0.30943319  0.87510769  0.42049339     0.46700
H1342       H  0.28269149  0.93048915  0.39545556     0.42100
H1343       H  0.19852048  0.91482611  0.35972540     0.45500
H1344       H  0.23419748  0.92178403  0.44136498     0.37000
C1345       C  0.11480571  0.08978894  0.33543523    -0.27200
C1346       C  0.10026502  0.09227841  0.35069351     0.02400
C1347       C  0.09949472  0.07842422  0.36674011     0.30500
C1348       C  0.11357232  0.06273360  0.36777305    -0.19000
C1349       C  0.12847870  0.06044357  0.35286057    -0.28400
C1350       C  0.12886614  0.07391542  0.33640079     0.44500
C1351       C  0.08599539  0.10944507  0.35016195     0.05700
O1352       O  0.08462357  0.07982803  0.38115462    -0.56900
H1353       H  0.11282892  0.05228048  0.38033413     0.18600
O1354       O  0.14360260  0.07243303  0.32189432    -0.63600
H1355       H  0.11550568  0.10040935  0.32301988     0.17100
C1356       C  0.08646537  0.12430497  0.36531864     0.29300
C1357       C  0.07146521  0.13917306  0.36604331    -0.24500
C1358       C  0.05563066  0.13941752  0.35190257    -0.23800
C1359       C  0.05572071  0.12492860  0.33617923     0.40800
C1360       C  0.07092212  0.11018354  0.33536384    -0.26300
O1361       O  0.10169793  0.12446299  0.37936338    -0.58200
H1362       H  0.07206044  0.15028401  0.37804755     0.16400
O1363       O  0.04083325  0.12466774  0.32180517    -0.59600
H1364       H  0.07049036  0.09880576  0.32359779     0.14900
H1365       H  0.13723482  0.06491689  0.31061901     0.46700
H1366       H  0.09515957  0.12103752  0.39239736     0.42100
H1367       H  0.03049513  0.11510600  0.32697264     0.45500
H1368       H  0.09164209  0.08370011  0.39379093     0.37000
C1369       C  0.23378223  0.10660355  0.55455071    -0.27200
C1370       C  0.23789228  0.11001721  0.57507861     0.02400
C1371       C  0.25502043  0.12140822  0.58048319     0.30500
C1372       C  0.26918212  0.12655928  0.56578547    -0.19000
C1373       C  0.26620216  0.12099273  0.54555744    -0.28400
C1374       C  0.24774115  0.11220990  0.53975729     0.44500
C1375       C  0.22729865  0.09759146  0.59026905     0.05700
O1376       O  0.25899614  0.12586712  0.60030141    -0.56900
H1377       H  0.28304984  0.13397097  0.57038624     0.18600
O1378       O  0.24395686  0.10740489  0.51997909    -0.63600
H1379       H  0.22075729  0.09779153  0.55002666     0.17100
C1380       C  0.20621950  0.09495877  0.58977231     0.29300
C1381       C  0.19741830  0.07895096  0.60039436    -0.24500
C1382       C  0.20947680  0.06531058  0.61135820    -0.23800
C1383       C  0.23027487  0.06930859  0.61350214     0.40800
C1384       C  0.23899956  0.08528301  0.60294593    -0.26300
O1385       O  0.19427363  0.10763063  0.57852866    -0.58200
H1386       H  0.18127974  0.07654921  0.59896481     0.16400
O1387       O  0.24238762  0.05729358  0.62524538    -0.59600
H1388       H  0.25528135  0.08697950  0.60349871     0.14900
H1389       H  0.24874750  0.09331010  0.51831217     0.46700
H1390       H  0.18846660  0.09913627  0.56764115     0.42100
H1391       H  0.24955345  0.04823904  0.61567672     0.45500
H1392       H  0.25046506  0.13779151  0.60344761     0.37000
C1393       C  0.23929983  0.91166252  0.62162688    -0.27200
C1394       C  0.25620785  0.91527697  0.60951426     0.02400
C1395       C  0.26329830  0.93514073  0.60671137     0.30500
C1396       C  0.25184359  0.95137188  0.61378460    -0.19000
C1397       C  0.23339252  0.94776516  0.62350396    -0.28400
C1398       C  0.22799159  0.92785826  0.62891420     0.44500
C1399       C  0.26270207  0.89962724  0.59538265     0.05700
O1400       O  0.27974042  0.93885160  0.59462573    -0.56900
H1401       H  0.25627413  0.96662099  0.60976196     0.18600
O1402       O  0.21065429  0.92404452  0.63965345    -0.63600
H1403       H  0.23386444  0.89636790  0.62386915     0.17100
C1404       C  0.28115213  0.88955207  0.59772615     0.29300
C1405       C  0.28917769  0.87866912  0.58151748    -0.24500
C1406       C  0.27911516  0.87834898  0.56283987    -0.23800
C1407       C  0.25974862  0.88702344  0.56120683     0.40800
C1408       C  0.25165511  0.89754362  0.57749872    -0.26300
O1409       O  0.29182895  0.89113726  0.61537377    -0.58200
H1410       H  0.30402713  0.87194784  0.58307654     0.16400
O1411       O  0.24924811  0.88654918  0.54337927    -0.59600
H1412       H  0.23736636  0.90536067  0.57569335     0.14900
H1413       H  0.21478705  0.92459764  0.65401936     0.46700
H1414       H  0.30154783  0.90233878  0.61315079     0.42100
H1415       H  0.24222765  0.87329866  0.54329942     0.45500
H1416       H  0.29140108  0.93959191  0.60398177     0.37000
C1417       C  0.10139644  0.06666166  0.67342770    -0.27200
C1418       C  0.08437232  0.06550879  0.66084838     0.02400
C1419       C  0.08223847  0.04888166  0.64774050     0.30500
C1420       C  0.09804361  0.03510227  0.64552394    -0.19000
C1421       C  0.11585297  0.03729322  0.65671592    -0.28400
C1422       C  0.11705931  0.05247764  0.67157569     0.44500
C1423       C  0.07132356  0.08344285  0.65811257     0.05700
O1424       O  0.06547702  0.04702089  0.63572662    -0.56900
H1425       H  0.09683035  0.02328352  0.63425032     0.18600
O1426       O  0.13436748  0.05497876  0.68265894    -0.63600
H1427       H  0.10330718  0.07944413  0.68347825     0.17100
C1428       C  0.05982016  0.09192482  0.67383994     0.29300
C1429       C  0.04784306  0.10908350  0.67015273    -0.24500
C1430       C  0.04743071  0.11814145  0.65090438    -0.23800
C1431       C  0.05932110  0.10956479  0.63531978     0.40800
C1432       C  0.07107400  0.09253541  0.63906802    -0.26300
O1433       O  0.05972162  0.08322401  0.69260695    -0.58200
H1434       H  0.03890222  0.11528414  0.68238584     0.16400
O1435       O  0.06005886  0.11790226  0.61638851    -0.59600
H1436       H  0.08025301  0.08642560  0.62694127     0.14900
H1437       H  0.13208119  0.04712450  0.69519308     0.46700
H1438       H  0.06934649  0.09134616  0.70072070     0.42100
H1439       H  0.05018640  0.11006392  0.60828265     0.45500
H1440       H  0.05549820  0.03951697  0.64402569     0.37000
C1441       C  0.17162444  0.01244983  0.52171019    -0.27200
C1442       C  0.16274163  0.99633218  0.51087953     0.02400
C1443       C  0.15481636  0.98001799  0.52234174     0.30500
C1444       C  0.15610201  0.97996681  0.54365086    -0.19000
C1445       C  0.16448016  0.99636187  0.55430212    -0.28400
C1446       C  0.17224529  0.01269091  0.54299286     0.44500
C1447       C  0.16205959  0.99672313  0.48788128     0.05700
O1448       O  0.14538919  0.96412125  0.51297532    -0.56900
H1449       H  0.15003775  0.96720866  0.55192604     0.18600
O1450       O  0.18099109  0.02885665  0.55258559    -0.63600
H1451       H  0.17849092  0.02492668  0.51366702     0.17100
C1452       C  0.15775981  0.01469140  0.47705279     0.29300
C1453       C  0.15843951  0.01506713  0.45576754    -0.24500
C1454       C  0.16279179  0.99762198  0.44433301    -0.23800
C1455       C  0.16635737  0.97946702  0.45505213     0.40800
C1456       C  0.16618051  0.97919109  0.47639811    -0.26300
O1457       O  0.15273662  0.03213852  0.48705669    -0.58200
H1458       H  0.15546992  0.02923681  0.44815438     0.16400
O1459       O  0.17054564  0.96188578  0.44489400    -0.59600
H1460       H  0.16989005  0.96518118  0.48394614     0.14900
H1461       H  0.19535333  0.02500643  0.55447552     0.46700
H1462       H  0.13808523  0.03090352  0.49001231     0.42100
H1463       H  0.18549293  0.96144884  0.44375593     0.45500
H1464       H  0.13095627  0.96807113  0.51213704     0.37000
C1465       C  0.83443195  0.41678268  0.39117070    -0.27200
C1466       C  0.84935790  0.41376494  0.40583108     0.02400
C1467       C  0.86528774  0.42770936  0.40770422     0.30500
C1468       C  0.86683450  0.44380018  0.39420213    -0.19000
C1469       C  0.85242449  0.44640913  0.37890736    -0.28400
C1470       C  0.83583006  0.43307691  0.37775932     0.44500
C1471       C  0.84930303  0.39527378  0.41815502     0.05700
O1472       O  0.87984004  0.42525286  0.42221787    -0.56900
H1473       H  0.87962302  0.45398634  0.39535605     0.18600
O1474       O  0.82192406  0.43478448  0.36253965    -0.63600
H1475       H  0.82218871  0.40600983  0.38958092     0.17100
C1476       C  0.83509457  0.39240651  0.43362583     0.29300
C1477       C  0.83692427  0.37580841  0.44656288    -0.24500
C1478       C  0.85279944  0.36179834  0.44416721    -0.23800
C1479       C  0.86630321  0.36419638  0.42778364     0.40800
C1480       C  0.86448132  0.38087053  0.41501046    -0.26300
O1481       O  0.82014995  0.40638286  0.43696576    -0.58200
H1482       H  0.82628553  0.37435181  0.45892156     0.16400
O1483       O  0.88142329  0.35047036  0.42413376    -0.59600
H1484       H  0.87528029  0.38284544  0.40284757     0.14900
H1485       H  0.81055139  0.44254943  0.36846915     0.46700
H1486       H  0.80836536  0.40143930  0.42915765     0.42100
H1487       H  0.89380893  0.35659464  0.42992664     0.45500
H1488       H  0.87411904  0.43153873  0.43456190     0.37000
C1489       C  0.16803461  0.42561639  0.38922632    -0.27200
C1490       C  0.15037951  0.41729921  0.39763280     0.02400
C1491       C  0.13139963  0.42427680  0.39101437     0.30500
C1492       C  0.13025735  0.43976162  0.37681766    -0.19000
C1493       C  0.14784328  0.44825179  0.36852427    -0.28400
C1494       C  0.16686897  0.44091600  0.37465276     0.44500
C1495       C  0.15160837  0.40159650  0.41350421     0.05700
O1496       O  0.11381998  0.41596642  0.39826318    -0.56900
H1497       H  0.11548300  0.44494568  0.37203418     0.18600
O1498       O  0.18437317  0.44885972  0.36685824    -0.63600
H1499       H  0.18274829  0.42051179  0.39423601     0.17100
C1500       C  0.16251250  0.38356849  0.41048626     0.29300
C1501       C  0.16162228  0.36816660  0.42495814    -0.24500
C1502       C  0.14987929  0.37044345  0.44251216    -0.23800
C1503       C  0.13976003  0.38891557  0.44590140     0.40800
C1504       C  0.14075943  0.40427772  0.43151632    -0.26300
O1505       O  0.17286908  0.38029326  0.39283472    -0.58200
H1506       H  0.16942464  0.35407431  0.42198415     0.16400
O1507       O  0.12845980  0.39200753  0.46300347    -0.59600
H1508       H  0.13263613  0.41824206  0.43424910     0.14900
H1509       H  0.18788334  0.46027975  0.37590562     0.46700
H1510       H  0.18733696  0.38210610  0.39630935     0.42100
H1511       H  0.13814147  0.39721600  0.47316614     0.45500
H1512       H  0.11132071  0.40393816  0.38967481     0.37000
C1513       C  0.02536653  0.49743959  0.34290289    -0.27200
C1514       C  0.01337498  0.50083983  0.32569371     0.02400
C1515       C  0.02345172  0.50466505  0.30726614     0.30500
C1516       C  0.04477480  0.50515048  0.30630214    -0.19000
C1517       C  0.05685760  0.50187433  0.32352609    -0.28400
C1518       C  0.04671840  0.49799938  0.34199067     0.44500
C1519       C  0.99051133  0.50050836  0.32708539     0.05700
O1520       O  0.01259936  0.50775188  0.28993507    -0.56900
H1521       H  0.05186494  0.50813292  0.29186591     0.18600
O1522       O  0.05745473  0.49439947  0.35929133    -0.63600
H1523       H  0.01813720  0.49460416  0.35729861     0.17100
C1524       C  0.97995826  0.48395913  0.33552789     0.29300
C1525       C  0.95859617  0.48388335  0.33641442    -0.24500
C1526       C  0.94703303  0.50030428  0.32929107    -0.23800
C1527       C  0.95765565  0.51687164  0.32082514     0.40800
C1528       C  0.97900118  0.51686554  0.31982898    -0.26300
O1529       O  0.99035797  0.46731353  0.34215176    -0.58200
H1530       H  0.95105537  0.47080879  0.34276101     0.16400
O1531       O  0.94737675  0.53312783  0.31315733    -0.59600
H1532       H  0.98662190  0.52982965  0.31334781     0.14900
H1533       H  0.05829199  0.50766831  0.36621663     0.46700
H1534       H  0.98996865  0.46813343  0.35708687     0.42100
H1535       H  0.94530437  0.52993681  0.29868164     0.45500
H1536       H  0.01036904  0.49407472  0.28421627     0.37000
C1537       C  0.10167427  0.39144526  0.21767158    -0.27200
C1538       C  0.10073498  0.39764822  0.23781394     0.02400
C1539       C  0.08385191  0.39252299  0.24970402     0.30500
C1540       C  0.06698277  0.38373066  0.24066332    -0.19000
C1541       C  0.06685801  0.37998737  0.21984286    -0.28400
C1542       C  0.08494098  0.38233435  0.20868396     0.44500
C1543       C  0.11403081  0.41395847  0.24469076     0.05700
O1544       O  0.08258742  0.39867954  0.26943532    -0.56900
H1545       H  0.05340123  0.38167021  0.24959616     0.18600
O1546       O  0.08590311  0.37737070  0.18860662    -0.63600
H1547       H  0.11472680  0.39521491  0.20850556     0.17100
C1548       C  0.12658076  0.41150662  0.26151570     0.29300
C1549       C  0.13390972  0.42856244  0.27153291    -0.24500
C1550       C  0.12857197  0.44811225  0.26501603    -0.23800
C1551       C  0.11778182  0.45037411  0.24684965     0.40800
C1552       C  0.11062697  0.43330620  0.23681554    -0.26300
O1553       O  0.13025390  0.39265472  0.26927232    -0.58200
H1554       H  0.14247276  0.42642042  0.28528075     0.16400
O1555       O  0.11288216  0.46912510  0.23953349    -0.59600
H1556       H  0.10094033  0.43526473  0.22378582     0.14900
H1557       H  0.08901907  0.36270996  0.18832640     0.46700
H1558       H  0.14116817  0.38694415  0.26071805     0.42100
H1559       H  0.12430147  0.47292759  0.23059407     0.45500
H1560       H  0.08691836  0.38681997  0.27746509     0.37000
C1561       C  0.93069426  0.38375998  0.26345191    -0.27200
C1562       C  0.91157009  0.38442082  0.25427575     0.02400
C1563       C  0.90920398  0.37688730  0.23461178     0.30500
C1564       C  0.92626996  0.37183927  0.22336545    -0.19000
C1565       C  0.94570604  0.37392157  0.23169469    -0.28400
C1566       C  0.94775535  0.37839034  0.25232183     0.44500
C1567       C  0.89654619  0.39840429  0.26280315     0.05700
O1568       O  0.89058823  0.37672273  0.22552766    -0.56900
H1569       H  0.92435967  0.36761107  0.20768184     0.18600
O1570       O  0.96644197  0.38004370  0.26110055    -0.63600
H1571       H  0.93284477  0.38966604  0.27854137     0.17100
C1572       C  0.89176577  0.39795104  0.28342660     0.29300
C1573       C  0.88419439  0.41533031  0.29271036    -0.24500
C1574       C  0.88156159  0.43326609  0.28161428    -0.23800
C1575       C  0.88405303  0.43285890  0.26052291     0.40800
C1576       C  0.89141867  0.41544202  0.25127650    -0.26300
O1577       O  0.89546051  0.38093602  0.29468738    -0.58200
H1578       H  0.88157170  0.41508444  0.30885004     0.16400
O1579       O  0.88093084  0.44978065  0.24898924    -0.59600
H1580       H  0.89513052  0.41607982  0.23535762     0.14900
H1581       H  0.96906142  0.36660568  0.26717186     0.46700
H1582       H  0.90657976  0.38459376  0.30403286     0.42100
H1583       H  0.89436908  0.45636036  0.24785254     0.45500
H1584       H  0.88430460  0.36375417  0.22967970     0.37000
C1585       C  0.98872785  0.26145565  0.22439547    -0.27200
C1586       C  0.99899666  0.26100838  0.24300793     0.02400
C1587       C  0.01156813  0.27742191  0.24799028     0.30500
C1588       C  0.01336075  0.29402712  0.23493610    -0.19000
C1589       C  0.00275789  0.29492671  0.21651681    -0.28400
C1590       C  0.99071011  0.27810849  0.21110476     0.44500
C1591       C  0.99545569  0.24455844  0.25819984     0.05700
O1592       O  0.02168653  0.27771150  0.26603543    -0.56900
H1593       H  0.02277139  0.30660344  0.23958639     0.18600
O1594       O  0.97976019  0.27832930  0.19357137    -0.63600
H1595       H  0.97879916  0.24907199  0.22036436     0.17100
C1596       C  0.97807958  0.24485495  0.27051690     0.29300
C1597       C  0.97664759  0.23208791  0.28744421    -0.24500
C1598       C  0.99214525  0.21832222  0.29227644    -0.23800
C1599       C  0.00900797  0.21714227  0.27919691     0.40800
C1600       C  0.01064835  0.23029961  0.26248751    -0.26300
O1601       O  0.96302214  0.25863684  0.26699173    -0.58200
H1602       H  0.96357790  0.23340776  0.29723711     0.16400
O1603       O  0.02457908  0.20410614  0.28329256    -0.59600
H1604       H  0.02422081  0.22993175  0.25331952     0.14900
H1605       H  0.98838612  0.27132011  0.18350890     0.46700
H1606       H  0.95353204  0.25172078  0.25769570     0.42100
H1607       H  0.03386733  0.21177234  0.29220096     0.45500
H1608       H  0.01205975  0.28372858  0.27583597     0.37000
C1609       C  0.11041156  0.58484114  0.24643859    -0.27200
C1610       C  0.10981562  0.60249438  0.25815289     0.02400
C1611       C  0.11967208  0.60312163  0.27681272     0.30500
C1612       C  0.12809154  0.58546901  0.28459523    -0.19000
C1613       C  0.12632590  0.56707768  0.27403260    -0.28400
C1614       C  0.11837431  0.56704622  0.25436853     0.44500
C1615       C  0.09414538  0.61724974  0.25327373     0.05700
O1616       O  0.11931797  0.62032878  0.28835824    -0.56900
H1617       H  0.13441026  0.58586624  0.29966129     0.18600
O1618       O  0.11748547  0.54958867  0.24319519    -0.63600
H1619       H  0.10278489  0.58430763  0.23198293     0.17100
C1620       C  0.09522199  0.62847793  0.23541734     0.29300
C1621       C  0.07747016  0.63591246  0.22686647    -0.24500
C1622       C  0.05856666  0.63155192  0.23568373    -0.23800
C1623       C  0.05786151  0.62230640  0.25478133     0.40800
C1624       C  0.07570977  0.61545732  0.26358497    -0.26300
O1625       O  0.11331447  0.63094637  0.22555644    -0.58200
H1626       H  0.07842517  0.64343140  0.21238252     0.16400
O1627       O  0.03979979  0.61899936  0.26445992    -0.59600
H1628       H  0.07484435  0.60679754  0.27743907     0.14900
H1629       H  0.10326410  0.54491836  0.24422506     0.46700
H1630       H  0.11363520  0.62022361  0.21509059     0.42100
H1631       H  0.03667796  0.60449422  0.26224189     0.45500
H1632       H  0.13178265  0.62778933  0.28461490     0.37000
C1633       C  0.90264107  0.61525151  0.23193764    -0.27200
C1634       C  0.90506495  0.60327874  0.24906787     0.02400
C1635       C  0.92378845  0.60262784  0.25906441     0.30500
C1636       C  0.94034863  0.61272758  0.25093855    -0.19000
C1637       C  0.93845416  0.62355237  0.23288468    -0.28400
C1638       C  0.91914868  0.62567312  0.22393069     0.44500
C1639       C  0.88945783  0.58876112  0.25479841     0.05700
O1640       O  0.92650828  0.59038120  0.27554387    -0.56900
H1641       H  0.95494994  0.61102732  0.25813094     0.18600
O1642       O  0.91657698  0.63622178  0.20632227    -0.63600
H1643       H  0.88823538  0.61563435  0.22418527     0.17100
C1644       C  0.87979912  0.59067565  0.27350077     0.29300
C1645       C  0.87208692  0.57349400  0.28286619    -0.24500
C1646       C  0.87436409  0.55438554  0.27381982    -0.23800
C1647       C  0.88128324  0.55304936  0.25376991     0.40800
C1648       C  0.88877589  0.57035564  0.24431637    -0.26300
O1649       O  0.87953046  0.60889708  0.28342655    -0.58200
H1650       H  0.86606506  0.57487695  0.29802421     0.16400
O1651       O  0.88277651  0.53474934  0.24411627    -0.59600
H1652       H  0.89616664  0.56891094  0.22977475     0.14900
H1653       H  0.91276234  0.65007978  0.21059023     0.46700
H1654       H  0.89030504  0.60799327  0.29377292     0.42100
H1655       H  0.89675949  0.53001221  0.24669933     0.45500
H1656       H  0.92706844  0.59967003  0.28728982     0.37000
C1657       C  0.98113411  0.47944087  0.17783533    -0.27200
C1658       C  0.99919315  0.49058939  0.17654544     0.02400
C1659       C  0.01735537  0.47981391  0.17352811     0.30500
C1660       C  0.01733006  0.45845160  0.17218882    -0.19000
C1661       C  0.99926404  0.44710328  0.17362200    -0.28400
C1662       C  0.98100985  0.45809923  0.17630573     0.44500
C1663       C  0.99897299  0.51336393  0.17841987     0.05700
O1664       O  0.03536326  0.49002010  0.17230638    -0.56900
H1665       H  0.03163594  0.45074414  0.17018100     0.18600
O1666       O  0.96286175  0.44819415  0.17785366    -0.63600
H1667       H  0.96696665  0.48734849  0.18008316     0.17100
C1668       C  0.99764951  0.52594401  0.16130128     0.29300
C1669       C  0.99776278  0.54724228  0.16330658    -0.24500
C1670       C  0.99900371  0.55676100  0.18236859    -0.23800
C1671       C  0.99996427  0.54399021  0.19955736     0.40800
C1672       C  0.00004159  0.52269177  0.19746392    -0.26300
O1673       O  0.99645208  0.51756019  0.14241661    -0.58200
H1674       H  0.99686084  0.55634348  0.14976779     0.16400
O1675       O  0.00108629  0.55206719  0.21858064    -0.59600
H1676       H  0.00096246  0.51337979  0.21086562     0.14900
H1677       H  0.95746729  0.44771977  0.16390851     0.46700
H1678       H  0.98186522  0.51484421  0.14027477     0.42100
H1679       H  0.98688843  0.55285556  0.22336365     0.45500
H1680       H  0.03715221  0.49310655  0.15777534     0.37000
C1681       C  0.27422999  0.50428155  0.23734932    -0.27200
C1682       C  0.25423103  0.51154500  0.23642875     0.02400
C1683       C  0.24699040  0.51871035  0.21779363     0.30500
C1684       C  0.25935679  0.51826666  0.20059535    -0.19000
C1685       C  0.27928788  0.51068882  0.20124046    -0.28400
C1686       C  0.28676013  0.50397986  0.22005091     0.44500
C1687       C  0.24052201  0.51096614  0.25448875     0.05700
O1688       O  0.22755894  0.52574392  0.21605683    -0.56900
H1689       H  0.25306546  0.52369400  0.18653072     0.18600
O1690       O  0.30597568  0.49640550  0.22162195    -0.63600
H1691       H  0.28014555  0.49875160  0.25153262     0.17100
C1692       C  0.23544957  0.49256010  0.26392055     0.29300
C1693       C  0.22018533  0.49189796  0.27875612    -0.24500
C1694       C  0.20972997  0.50948165  0.28476601    -0.23800
C1695       C  0.21570034  0.52811649  0.27605470     0.40800
C1696       C  0.23087939  0.52869636  0.26115140    -0.26300
O1697       O  0.24422282  0.47485546  0.25764941    -0.58200
H1698       H  0.21599950  0.47735837  0.28500154     0.16400
O1699       O  0.20628247  0.54582979  0.28131944    -0.59600
H1700       H  0.23465418  0.54304788  0.25423154     0.14900
H1701       H  0.31442644  0.50803781  0.22585597     0.46700
H1702       H  0.25503234  0.47209773  0.26761357     0.42100
H1703       H  0.19549642  0.54774576  0.27111746     0.45500
H1704       H  0.21917886  0.51357496  0.21346479     0.37000
C1705       C  0.32245941  0.47960453  0.01934041    -0.27200
C1706       C  0.32756608  0.49685860  0.00793621     0.02400
C1707       C  0.33299539  0.51454656  0.01866909     0.30500
C1708       C  0.33265725  0.51495855  0.03994592    -0.19000
C1709       C  0.32724562  0.49783327  0.05140095    -0.28400
C1710       C  0.32231497  0.47993886  0.04067599     0.44500
C1711       C  0.32676374  0.49653783  0.98504939     0.05700
O1712       O  0.33884401  0.53163405  0.00851729    -0.56900
H1713       H  0.33668490  0.52891311  0.04750094     0.18600
O1714       O  0.31732109  0.46257247  0.05081185    -0.63600
H1715       H  0.31808535  0.46580683  0.01169842     0.17100
C1716       C  0.33525529  0.48063950  0.97348950     0.29300
C1717       C  0.33436034  0.48093501  0.95217848    -0.24500
C1718       C  0.32528787  0.49706100  0.94162631    -0.23800
C1719       C  0.31654627  0.51279424  0.95322975     0.40800
C1720       C  0.31730975  0.51240057  0.97449023    -0.26300
O1721       O  0.34483114  0.46482356  0.98279719    -0.58200
H1722       H  0.34112866  0.46855164  0.94386951     0.16400
O1723       O  0.30701145  0.52869461  0.94401919    -0.59600
H1724       H  0.31017216  0.52457794  0.98278982     0.14900
H1725       H  0.30233606  0.46246547  0.05134830     0.46700
H1726       H  0.35901987  0.46932928  0.98455806     0.42100
H1727       H  0.29263549  0.52455403  0.94294777     0.45500
H1728       H  0.35372158  0.53045543  0.00705439     0.37000
C1729       C  0.24820319  0.63517130  0.08536184    -0.27200
C1730       C  0.26273331  0.62017549  0.08207524     0.02400
C1731       C  0.26554646  0.61214298  0.06259454     0.30500
C1732       C  0.25225477  0.61730715  0.04730717    -0.19000
C1733       C  0.23602638  0.63035449  0.05116096    -0.28400
C1734       C  0.23502637  0.64062084  0.06986921     0.44500
C1735       C  0.27091746  0.60885507  0.09913406     0.05700
O1736       O  0.27929483  0.59699333  0.05910968    -0.56900
H1737       H  0.25377097  0.60972533  0.03288364     0.18600
O1738       O  0.22025071  0.65462352  0.07380149    -0.63600
H1739       H  0.24606854  0.64144894  0.10032184     0.17100
C1740       C  0.29176855  0.60539583  0.10028060     0.29300
C1741       C  0.29867155  0.58733955  0.10846283    -0.24500
C1742       C  0.28489505  0.57273452  0.11563718    -0.23800
C1743       C  0.26436317  0.57798769  0.11773126     0.40800
C1744       C  0.25748839  0.59608502  0.10944822    -0.26300
O1745       O  0.30515892  0.61795386  0.09062448    -0.58200
H1746       H  0.31470665  0.58411978  0.10754373     0.16400
O1747       O  0.25058006  0.56477860  0.12581580    -0.59600
H1748       H  0.24134309  0.59882620  0.10881307     0.14900
H1749       H  0.22596324  0.66769789  0.06919011     0.46700
H1750       H  0.30670376  0.62978085  0.09969864     0.42100
H1751       H  0.25057219  0.56768448  0.14049768     0.45500
H1752       H  0.29087122  0.60366138  0.05229555     0.37000
C1753       C  0.21847837  0.60787360  0.90216903    -0.27200
C1754       C  0.23685202  0.59766409  0.90379839     0.02400
C1755       C  0.24747655  0.59762387  0.92216871     0.30500
C1756       C  0.23889150  0.60655462  0.93914268    -0.19000
C1757       C  0.21976398  0.61555167  0.93796818    -0.28400
C1758       C  0.20987450  0.61690407  0.91914142     0.44500
C1759       C  0.24298680  0.58352442  0.88805443     0.05700
O1760       O  0.26559249  0.58766258  0.92395842    -0.56900
H1761       H  0.24677976  0.60561809  0.95342929     0.18600
O1762       O  0.19118687  0.62571755  0.91742550    -0.63600
H1763       H  0.21021489  0.60768680  0.88806812     0.17100
C1764       C  0.23379104  0.56435352  0.88750860     0.29300
C1765       C  0.24432594  0.54804257  0.87936943    -0.24500
C1766       C  0.26387837  0.55090793  0.87179417    -0.23800
C1767       C  0.27143917  0.57073237  0.86923883     0.40800
C1768       C  0.26106798  0.58694262  0.87771809    -0.26300
O1769       O  0.21599561  0.56086978  0.89758017    -0.58200
H1770       H  0.23815174  0.53296125  0.88105907     0.16400
O1771       O  0.28991013  0.57416842  0.86041741    -0.59600
H1772       H  0.26804869  0.60176971  0.87794086     0.14900
H1773       H  0.18134931  0.61460212  0.91957744     0.46700
H1774       H  0.20523126  0.56380326  0.88762245     0.42100
H1775       H  0.28730469  0.57393652  0.84569096     0.45500
H1776       H  0.26202048  0.57364662  0.92792368     0.37000
C1777       C  0.11593228  0.64892578  0.09005836    -0.27200
C1778       C  0.09546197  0.64778960  0.08470019     0.02400
C1779       C  0.09011402  0.64562980  0.06428112     0.30500
C1780       C  0.10521151  0.64380032  0.04958111    -0.19000
C1781       C  0.12570450  0.64437432  0.05496633    -0.28400
C1782       C  0.13104794  0.64733251  0.07532145     0.44500
C1783       C  0.07985112  0.64736695  0.10063628     0.05700
O1784       O  0.07016413  0.64565498  0.05860575    -0.56900
H1785       H  0.10090180  0.64189120  0.03392780     0.18600
O1786       O  0.15094868  0.64729426  0.08110865    -0.63600
H1787       H  0.12018996  0.65039012  0.10577265     0.17100
C1788       C  0.06779689  0.63007294  0.10330541     0.29300
C1789       C  0.05321316  0.62961616  0.11850758    -0.24500
C1790       C  0.05054212  0.64614164  0.13160952    -0.23800
C1791       C  0.06284082  0.66344748  0.12903734     0.40800
C1792       C  0.07735252  0.66393625  0.11360125    -0.26300
O1793       O  0.07041524  0.61334479  0.09133349    -0.58200
H1794       H  0.04424243  0.61601852  0.12024271     0.16400
O1795       O  0.06058982  0.68009451  0.14118913    -0.59600
H1796       H  0.08665088  0.67729503  0.11170105     0.14900
H1797       H  0.15471250  0.66175228  0.08237698     0.46700
H1798       H  0.08142097  0.60552960  0.09781031     0.42100
H1799       H  0.07108404  0.67867164  0.15176221     0.45500
H1800       H  0.06711203  0.63153816  0.05456429     0.37000
C1801       C  0.21572707  0.39428500  0.09360348    -0.27200
C1802       C  0.23486957  0.40311337  0.09246888     0.02400
C1803       C  0.24737521  0.39946553  0.07565725     0.30500
C1804       C  0.24004796  0.38823313  0.05946636    -0.19000
C1805       C  0.22034275  0.38049386  0.05992018    -0.28400
C1806       C  0.20846194  0.38276638  0.07752517     0.44500
C1807       C  0.24054455  0.41905257  0.10666277     0.05700
O1808       O  0.26623838  0.40803837  0.07435299    -0.56900
H1809       H  0.24938947  0.38646498  0.04612921     0.18600
O1810       O  0.18898889  0.37566111  0.07834299    -0.63600
H1811       H  0.20600060  0.39731032  0.10643008     0.17100
C1812       C  0.23301662  0.43871379  0.10365509     0.29300
C1813       C  0.24347579  0.45523883  0.11156156    -0.24500
C1814       C  0.26152509  0.45215682  0.12210478    -0.23800
C1815       C  0.26732088  0.43234374  0.12749990     0.40800
C1816       C  0.25690508  0.41587448  0.11955467    -0.26300
O1817       O  0.21682067  0.44199545  0.09117069    -0.58200
H1818       H  0.23872228  0.47037537  0.10752693     0.16400
O1819       O  0.28431146  0.42891802  0.13883635    -0.59600
H1820       H  0.26266947  0.40073480  0.12195964     0.14900
H1821       H  0.18994392  0.36236061  0.08516369     0.46700
H1822       H  0.22269571  0.44377673  0.07751161     0.42100
H1823       H  0.27990813  0.43070578  0.15303694     0.45500
H1824       H  0.26407342  0.42146122  0.06804093     0.37000
C1825       C  0.25218349  0.40875617  0.88580266    -0.27200
C1826       C  0.26513798  0.39410678  0.89393600     0.02400
C1827       C  0.28603345  0.39554915  0.89060150     0.30500
C1828       C  0.29391650  0.41303746  0.88179096    -0.19000
C1829       C  0.28110101  0.42918435  0.87649913    -0.28400
C1830       C  0.26000915  0.42621645  0.87700412     0.44500
C1831       C  0.25695449  0.38093166  0.90980878     0.05700
O1832       O  0.29876659  0.38043122  0.89694196    -0.56900
H1833       H  0.31018789  0.41448450  0.88053308     0.18600
O1834       O  0.24688299  0.44096370  0.87075507    -0.63600
H1835       H  0.23598449  0.40763997  0.88806170     0.17100
C1836       C  0.26307997  0.38412083  0.92990643     0.29300
C1837       C  0.25093157  0.37736663  0.94567509    -0.24500
C1838       C  0.23257652  0.36755469  0.94176841    -0.23800
C1839       C  0.22746286  0.36259255  0.92167601     0.40800
C1840       C  0.23972387  0.36927672  0.90584571    -0.26300
O1841       O  0.27937270  0.39619651  0.93429877    -0.58200
H1842       H  0.25527450  0.38107349  0.96099747     0.16400
O1843       O  0.20980646  0.35266776  0.91720263    -0.59600
H1844       H  0.23485361  0.36687379  0.89042453     0.14900
H1845       H  0.24402449  0.43776054  0.85642099     0.46700
H1846       H  0.28968327  0.38699221  0.94006717     0.42100
H1847       H  0.19973735  0.36347592  0.91465978     0.45500
H1848       H  0.30807267  0.38672129  0.90685771     0.37000
C1849       C  0.06387990  0.36295770  0.09079939    -0.27200
C1850       C  0.07380957  0.34435180  0.08861104     0.02400
C1851       C  0.06954293  0.32864271  0.10233480     0.30500
C1852       C  0.05601014  0.33193968  0.11829072    -0.19000
C1853       C  0.04661506  0.35082138  0.12079159    -0.28400
C1854       C  0.05024343  0.36618488  0.10651694     0.44500
C1855       C  0.08978332  0.34242566  0.07303206     0.05700
O1856       O  0.07888042  0.31021690  0.10057838    -0.56900
H1857       H  0.05335337  0.31991750  0.12906459     0.18600
O1858       O  0.04080102  0.38459286  0.10794289    -0.63600
H1859       H  0.06719462  0.37535743  0.08066054     0.17100
C1860       C  0.08643060  0.34898312  0.05309547     0.29300
C1861       C  0.10267178  0.35056740  0.03964949    -0.24500
C1862       C  0.12234026  0.34554174  0.04573181    -0.23800
C1863       C  0.12547913  0.33774596  0.06525935     0.40800
C1864       C  0.10927332  0.33632548  0.07875104    -0.26300
O1865       O  0.06730865  0.35382932  0.04667798    -0.58200
H1866       H  0.09992726  0.35616195  0.02453822     0.16400
O1867       O  0.14446919  0.33252441  0.07171186    -0.59600
H1868       H  0.11219999  0.33149907  0.09408241     0.14900
H1869       H  0.02763479  0.38277577  0.10102627     0.46700
H1870       H  0.06751205  0.36859978  0.04414874     0.42100
H1871       H  0.15016909  0.34502766  0.07772268     0.45500
H1872       H  0.06984574  0.30204463  0.09186038     0.37000
C1873       C  0.15381779  0.51921647  0.99693958    -0.27200
C1874       C  0.17043641  0.50772367  0.00368615     0.02400
C1875       C  0.18727183  0.51841893  0.01137016     0.30500
C1876       C  0.18759406  0.53978977  0.01157776    -0.19000
C1877       C  0.17117547  0.55138717  0.00444671    -0.28400
C1878       C  0.15404433  0.54065956  0.99731954     0.44500
C1879       C  0.17063796  0.48481226  0.00181699     0.05700
O1880       O  0.20366719  0.50810945  0.01870455    -0.56900
H1881       H  0.20092761  0.54733786  0.01734089     0.18600
O1882       O  0.13780289  0.55091888  0.98961544    -0.63600
H1883       H  0.14075273  0.51154848  0.99074678     0.17100
C1884       C  0.15524477  0.47243189  0.01007532     0.29300
C1885       C  0.15615118  0.45106558  0.00826404    -0.24500
C1886       C  0.17230708  0.44135859  0.99823321    -0.23800
C1887       C  0.18746876  0.45385549  0.98967127     0.40800
C1888       C  0.18657977  0.47510434  0.99156028    -0.26300
O1889       O  0.13976770  0.48099082  0.02089928    -0.58200
H1890       H  0.14438320  0.44204340  0.01522013     0.16400
O1891       O  0.20333749  0.44549807  0.97926043    -0.59600
H1892       H  0.19846185  0.48411219  0.98477476     0.14900
H1893       H  0.12785914  0.55156627  0.00080863     0.46700
H1894       H  0.12796943  0.48089798  0.01168744     0.42100
H1895       H  0.19849555  0.44415198  0.96516701     0.45500
H1896       H  0.20019040  0.50489113  0.03290176     0.37000
C1897       C  0.41606934  0.39478380  0.85951077    -0.27200
C1898       C  0.41748914  0.40597120  0.84167274     0.02400
C1899       C  0.43104738  0.39997945  0.82651852     0.30500
C1900       C  0.44356314  0.38321817  0.82964805    -0.19000
C1901       C  0.44256769  0.37215192  0.84777814    -0.28400
C1902       C  0.42828881  0.37792946  0.86261954     0.44500
C1903       C  0.40476352  0.42403892  0.83957505     0.05700
O1904       O  0.43287006  0.41100781  0.80910186    -0.56900
H1905       H  0.45436751  0.37919819  0.81801899     0.18600
O1906       O  0.42651212  0.36769788  0.88052722    -0.63600
H1907       H  0.40546976  0.39926310  0.87118407     0.17100
C1908       C  0.38809910  0.42411868  0.82642798     0.29300
C1909       C  0.37386273  0.43970279  0.82766792    -0.24500
C1910       C  0.37588863  0.45486830  0.84231659    -0.23800
C1911       C  0.39328914  0.45549717  0.85448413     0.40800
C1912       C  0.40761077  0.44011524  0.85304912    -0.26300
O1913       O  0.38480894  0.40828913  0.81345998    -0.58200
H1914       H  0.36040245  0.43898029  0.81839685     0.16400
O1915       O  0.39576795  0.47039181  0.86868839    -0.59600
H1916       H  0.42041098  0.44011739  0.86323771     0.14900
H1917       H  0.41579138  0.35747498  0.87819327     0.46700
H1918       H  0.37694682  0.39826098  0.82136083     0.42100
H1919       H  0.40199112  0.48186710  0.86131721     0.45500
H1920       H  0.42483265  0.40354553  0.79890662     0.37000
C1921       C  0.41931514  0.39685660  0.16666875    -0.27200
C1922       C  0.41976834  0.41265581  0.15259386     0.02400
C1923       C  0.43606752  0.41430419  0.13905460     0.30500
C1924       C  0.45093370  0.39933644  0.13872918    -0.19000
C1925       C  0.44974345  0.38278718  0.15186518    -0.28400
C1926       C  0.43427096  0.38192370  0.16640022     0.44500
C1927       C  0.40215707  0.42605047  0.15070395     0.05700
O1928       O  0.43731218  0.43032392  0.12594498    -0.56900
H1929       H  0.46291677  0.40015739  0.12757731     0.18600
O1930       O  0.43247889  0.36553626  0.17892908    -0.63600
H1931       H  0.40672591  0.39547423  0.17706528     0.17100
C1932       C  0.39016742  0.42534082  0.13325607     0.29300
C1933       C  0.37344883  0.43804238  0.13153785    -0.24500
C1934       C  0.36849076  0.45179113  0.14697872    -0.23800
C1935       C  0.38037722  0.45211999  0.16468571     0.40800
C1936       C  0.39698365  0.43915135  0.16647634    -0.26300
O1937       O  0.39431573  0.41173827  0.11813790    -0.58200
H1938       H  0.36451614  0.43721631  0.11787803     0.16400
O1939       O  0.37598437  0.46498187  0.18032772    -0.59600
H1940       H  0.40604761  0.43953546  0.18007299     0.14900
H1941       H  0.43896613  0.36973770  0.19173741     0.46700
H1942       H  0.39875509  0.41996903  0.10643901     0.42100
H1943       H  0.38446021  0.47712914  0.17793952     0.45500
H1944       H  0.43550687  0.42449717  0.11227036     0.37000
C1945       C  0.47210338  0.33962336  0.02256195    -0.27200
C1946       C  0.48954768  0.33633389  0.01077404     0.02400
C1947       C  0.50784927  0.33246210  0.02109579     0.30500
C1948       C  0.50845728  0.33178690  0.04240484    -0.19000
C1949       C  0.49098155  0.33485579  0.05426767    -0.28400
C1950       C  0.47269316  0.33902952  0.04389417     0.44500
C1951       C  0.48862157  0.33668919  0.98787564     0.05700
O1952       O  0.52530071  0.32885995  0.01048589    -0.56900
H1953       H  0.52275001  0.32853648  0.04965431     0.18600
O1954       O  0.45511403  0.34236517  0.05437547    -0.63600
H1955       H  0.45786524  0.34284903  0.01519087     0.17100
C1956       C  0.47448469  0.32493213  0.97694068     0.29300
C1957       C  0.47476014  0.32457227  0.95558094    -0.24500
C1958       C  0.48910802  0.33571392  0.94438535    -0.23800
C1959       C  0.50265579  0.34814703  0.95535510     0.40800
C1960       C  0.50239069  0.34846394  0.97667385    -0.26300
O1961       O  0.46066358  0.31316948  0.98696292    -0.58200
H1962       H  0.46405163  0.31496992  0.94777112     0.16400
O1963       O  0.51635598  0.36012059  0.94542191    -0.59600
H1964       H  0.51310661  0.35802936  0.98452098     0.14900
H1965       H  0.45456361  0.35719949  0.05648488     0.46700
H1966       H  0.46780638  0.30031788  0.98982726     0.42100
H1967       H  0.50941531  0.37327629  0.94356578     0.45500
H1968       H  0.52473040  0.31433994  0.00679318     0.37000
C1969       C  0.37324753  0.23813361  0.08928588    -0.27200
C1970       C  0.38603943  0.25461365  0.08600243     0.02400
C1971       C  0.39232387  0.25943390  0.06628015     0.30500
C1972       C  0.38660468  0.24715150  0.05023297    -0.19000
C1973       C  0.37467169  0.22993866  0.05351629    -0.28400
C1974       C  0.36744607  0.22580853  0.07320866     0.44500
C1975       C  0.39593670  0.26449329  0.10312233     0.05700
O1976       O  0.40567836  0.27495031  0.06282619    -0.56900
H1977       H  0.39227630  0.25070821  0.03530503     0.18600
O1978       O  0.35538751  0.20938624  0.07711830    -0.63600
H1979       H  0.36855244  0.23427612  0.10447608     0.17100
C1980       C  0.39557079  0.28560229  0.10494352     0.29300
C1981       C  0.41124969  0.29533843  0.11499111    -0.24500
C1982       C  0.42734999  0.28412147  0.12317443    -0.23800
C1983       C  0.42563418  0.26290083  0.12439037     0.40800
C1984       C  0.40985066  0.25319941  0.11433654    -0.26300
O1985       O  0.38149484  0.29687414  0.09477070    -0.58200
H1986       H  0.41174060  0.31170482  0.11460180     0.16400
O1987       O  0.44006910  0.25144121  0.13385441    -0.59600
H1988       H  0.40987682  0.23683880  0.11339268     0.14900
H1989       H  0.36479596  0.19848730  0.08127195     0.46700
H1990       H  0.36897761  0.29589472  0.10296910     0.42100
H1991       H  0.44882037  0.24612930  0.12290553     0.45500
H1992       H  0.39745826  0.28600382  0.05695867     0.37000
C1993       C  0.43129698  0.23413653  0.88470115    -0.27200
C1994       C  0.41202446  0.24297215  0.88544047     0.02400
C1995       C  0.40870851  0.26178931  0.87639696     0.30500
C1996       C  0.42515011  0.27300147  0.86971664    -0.19000
C1997       C  0.44495884  0.26569898  0.87223786    -0.28400
C1998       C  0.44791256  0.24548118  0.87815196     0.44500
C1999       C  0.39817356  0.23636676  0.90130540     0.05700
O2000       O  0.38994255  0.27060144  0.87692818    -0.56900
H2001       H  0.42248824  0.28826170  0.86441345     0.18600
O2002       O  0.46695981  0.23740737  0.87954502    -0.63600
H2003       H  0.43386604  0.21950367  0.89157397     0.17100
C2004       C  0.38766333  0.21802719  0.90018108     0.29300
C2005       C  0.37752722  0.21086713  0.91724707    -0.24500
C2006       C  0.37844566  0.22165004  0.93554646    -0.23800
C2007       C  0.38790889  0.24065046  0.93615898     0.40800
C2008       C  0.39766397  0.24789154  0.91906473    -0.26300
O2009       O  0.38774865  0.20682731  0.88275801    -0.58200
H2010       H  0.37024022  0.19620466  0.91655887     0.16400
O2011       O  0.38868239  0.25171930  0.95365679    -0.59600
H2012       H  0.40586066  0.26206390  0.91998463     0.14900
H2013       H  0.47107667  0.23945611  0.89378165     0.46700
H2014       H  0.39899326  0.19706020  0.88436469     0.42100
H2015       H  0.37612049  0.25990328  0.95370405     0.45500
H2016       H  0.38234403  0.26426533  0.86569630     0.37000
C2017       C  0.26675994  0.23214711  0.01787251    -0.27200
C2018       C  0.25905900  0.24057206  0.99998159     0.02400
C2019       C  0.26759350  0.23426069  0.98145869     0.30500
C2020       C  0.28359615  0.22022864  0.98112074    -0.19000
C2021       C  0.29170979  0.21222480  0.99903494    -0.28400
C2022       C  0.28280416  0.21820019  0.01755644     0.44500
C2023       C  0.24338185  0.25703269  0.00102624     0.05700
O2024       O  0.26160197  0.24299839  0.96368315    -0.56900
H2025       H  0.29022285  0.21628315  0.96668864     0.18600
O2026       O  0.29017399  0.21126587  0.03559286    -0.63600
H2027       H  0.26053460  0.23670896  0.03230635     0.17100
C2028       C  0.22598375  0.25705945  0.98864532     0.29300
C2029       C  0.21262743  0.27364576  0.98880897    -0.24500
C2030       C  0.21566265  0.29011194  0.00189607    -0.23800
C2031       C  0.23246140  0.28957475  0.01504121     0.40800
C2032       C  0.24609004  0.27329350  0.01445529    -0.26300
O2033       O  0.22171087  0.24086935  0.97644968    -0.58200
H2034       H  0.19972949  0.27354660  0.97876044     0.16400
O2035       O  0.23620337  0.30527773  0.02804906    -0.59600
H2036       H  0.25921166  0.27369943  0.02420836     0.14900
H2037       H  0.28228683  0.19885541  0.03853547     0.46700
H2038       H  0.21456263  0.23107463  0.98525538     0.42100
H2039       H  0.24477368  0.31485951  0.02033139     0.45500
H2040       H  0.25537605  0.23194851  0.95568516     0.37000
C2041       C  0.59927882  0.24855195  0.07351479    -0.27200
C2042       C  0.59268452  0.23737559  0.09028103     0.02400
C2043       C  0.59711327  0.21669405  0.09153238     0.30500
C2044       C  0.60653931  0.20709542  0.07538484    -0.19000
C2045       C  0.61162641  0.21790471  0.05780777    -0.28400
C2046       C  0.60874975  0.23899053  0.05732021     0.44500
C2047       C  0.57817152  0.24673678  0.10420308     0.05700
O2048       O  0.59105748  0.20549445  0.10786838    -0.56900
H2049       H  0.60897962  0.19092567  0.07629743     0.18600
O2050       O  0.61396405  0.25021763  0.04070727    -0.63600
H2051       H  0.59569741  0.26447587  0.07222955     0.17100
C2052       C  0.58206246  0.26584151  0.11253709     0.29300
C2053       C  0.56610962  0.27711785  0.12037799    -0.24500
C2054       C  0.54625835  0.26956495  0.11979061    -0.23800
C2055       C  0.54283558  0.24944605  0.11388402     0.40800
C2056       C  0.55877998  0.23821646  0.10589703    -0.26300
O2057       O  0.60121974  0.27386467  0.11220113    -0.58200
H2058       H  0.56910041  0.29231632  0.12572967     0.16400
O2059       O  0.52372565  0.24139105  0.11375749    -0.59600
H2060       H  0.55558499  0.22349773  0.09945373     0.14900
H2061       H  0.60147537  0.25110516  0.03250522     0.46700
H2062       H  0.60069138  0.28533297  0.10258506     0.42100
H2063       H  0.52232583  0.23441997  0.12692644     0.45500
H2064       H  0.60172524  0.20757762  0.11815626     0.37000
C2065       C  0.58968692  0.26493792  0.87948861    -0.27200
C2066       C  0.59630244  0.26842546  0.89932318     0.02400
C2067       C  0.58814697  0.28476202  0.91034258     0.30500
C2068       C  0.57203837  0.29565920  0.90244167    -0.19000
C2069       C  0.56343350  0.29000930  0.88400506    -0.28400
C2070       C  0.57301290  0.27538090  0.87192509     0.44500
C2071       C  0.60729081  0.25239631  0.91019409     0.05700
O2072       O  0.59427537  0.28883622  0.92969487    -0.56900
H2073       H  0.56503682  0.30723481  0.91169464     0.18600
O2074       O  0.56547395  0.27033412  0.85332521    -0.63600
H2075       H  0.59619064  0.25278231  0.87064022     0.17100
C2076       C  0.59899676  0.23276857  0.91080865     0.29300
C2077       C  0.60525314  0.21926659  0.92555704    -0.24500
C2078       C  0.61947490  0.22504785  0.94010853    -0.23800
C2079       C  0.62911407  0.24397125  0.93844192     0.40800
C2080       C  0.62315387  0.25742940  0.92333693    -0.26300
O2081       O  0.58302271  0.22743275  0.89873194    -0.58200
H2082       H  0.59774573  0.20472627  0.92646731     0.16400
O2083       O  0.64357287  0.24986712  0.95203637    -0.59600
H2084       H  0.62986560  0.27236743  0.92283152     0.14900
H2085       H  0.57155685  0.28022630  0.84385845     0.46700
H2086       H  0.58892436  0.21874521  0.88803334     0.42100
H2087       H  0.65647754  0.24446943  0.94663099     0.45500
H2088       H  0.58527246  0.28068459  0.93848545     0.37000
C2089       C  0.52041745  0.15267221  0.01023967    -0.27200
C2090       C  0.50985753  0.16396099  0.99565878     0.02400
C2091       C  0.52128379  0.17423230  0.98083654     0.30500
C2092       C  0.54256988  0.17333312  0.98088089    -0.19000
C2093       C  0.55322012  0.16245261  0.99572172    -0.28400
C2094       C  0.54177497  0.15193709  0.01041992     0.44500
C2095       C  0.48709276  0.16555747  0.99631807     0.05700
O2096       O  0.51179025  0.18538352  0.96622573    -0.56900
H2097       H  0.55080172  0.18166268  0.96944430     0.18600
O2098       O  0.55126013  0.14098040  0.02517279    -0.63600
H2099       H  0.51207330  0.14471359  0.02185493     0.17100
C2100       C  0.47445695  0.14832046  0.99629744     0.29300
C2101       C  0.45317773  0.15036822  0.99670341    -0.24500
C2102       C  0.44382592  0.16953951  0.99714225    -0.23800
C2103       C  0.45663442  0.18677089  0.99733910     0.40800
C2104       C  0.47782021  0.18465929  0.99684223    -0.26300
O2105       O  0.48272724  0.12933364  0.99553347    -0.58200
H2106       H  0.44397396  0.13682320  0.99651170     0.16400
O2107       O  0.44870849  0.20592007  0.99772398    -0.59600
H2108       H  0.48711055  0.19815453  0.99703236     0.14900
H2109       H  0.55228460  0.12706333  0.01969182     0.46700
H2110       H  0.48465906  0.12645433  0.98096921     0.42100
H2111       H  0.44817265  0.20968474  0.01220336     0.45500
H2112       H  0.50871671  0.17563727  0.95527543     0.37000
C2113       C  0.43122055  0.83009428  0.39371357    -0.27200
C2114       C  0.41562539  0.84406541  0.39674128     0.02400
C2115       C  0.41359140  0.86053944  0.38357263     0.30500
C2116       C  0.42769011  0.86350772  0.36815046    -0.19000
C2117       C  0.44388001  0.85001590  0.36539894    -0.28400
C2118       C  0.44524768  0.83285168  0.37808009     0.44500
C2119       C  0.40243135  0.84256850  0.41458974     0.05700
O2120       O  0.39842536  0.87440682  0.38633808    -0.56900
H2121       H  0.42610686  0.87665252  0.35854922     0.18600
O2122       O  0.46045907  0.81895204  0.37572724    -0.63600
H2123       H  0.43279334  0.81730550  0.40379084     0.17100
C2124       C  0.38250256  0.83544998  0.41291515     0.29300
C2125       C  0.36922932  0.83729118  0.42928158    -0.24500
C2126       C  0.37556670  0.84641979  0.44738173    -0.23800
C2127       C  0.39592527  0.85254390  0.44930238     0.40800
C2128       C  0.40917523  0.85057404  0.43294963    -0.26300
O2129       O  0.37559089  0.82768342  0.39501963    -0.58200
H2130       H  0.35368178  0.83246824  0.42744914     0.16400
O2131       O  0.40289296  0.86103884  0.46684842    -0.59600
H2132       H  0.42454753  0.85608816  0.43431859     0.14900
H2133       H  0.47144409  0.82357611  0.38478497     0.46700
H2134       H  0.37891492  0.81307182  0.39551983     0.42100
H2135       H  0.40738273  0.84947796  0.47523510     0.45500
H2136       H  0.38705252  0.86948235  0.37792988     0.37000
C2137       C  0.42707485  0.14228734  0.40008992    -0.27200
C2138       C  0.43327302  0.15616987  0.41476114     0.02400
C2139       C  0.45025112  0.16843098  0.41114119     0.30500
C2140       C  0.46107321  0.16638282  0.39299289    -0.19000
C2141       C  0.45506944  0.15214296  0.37837098    -0.28400
C2142       C  0.43767636  0.14027441  0.38201148     0.44500
C2143       C  0.42156777  0.15717774  0.43368066     0.05700
O2144       O  0.45680085  0.18181840  0.42551975    -0.56900
H2145       H  0.47442715  0.17556424  0.39057470     0.18600
O2146       O  0.43085242  0.12658782  0.36802048    -0.63600
H2147       H  0.41386784  0.13292524  0.40270528     0.17100
C2148       C  0.40652429  0.17195969  0.43637897     0.29300
C2149       C  0.39182235  0.16946469  0.45144646    -0.24500
C2150       C  0.39178031  0.15207946  0.46360452    -0.23800
C2151       C  0.40803695  0.13834127  0.46208446     0.40800
C2152       C  0.42268175  0.14088806  0.44709894    -0.26300
O2153       O  0.40518313  0.18804148  0.42340843    -0.58200
H2154       H  0.37953566  0.18024592  0.45245521     0.16400
O2155       O  0.40904449  0.12165486  0.47431282    -0.59600
H2156       H  0.43422123  0.12942479  0.44511407     0.14900
H2157       H  0.42159786  0.13434542  0.35917311     0.46700
H2158       H  0.39630746  0.18336455  0.41229623     0.42100
H2159       H  0.41569209  0.12643734  0.48684035     0.45500
H2160       H  0.44959127  0.19461204  0.42257948     0.37000
C2161       C  0.50790711  0.24386944  0.27260798    -0.27200
C2162       C  0.49345544  0.24617670  0.25720580     0.02400
C2163       C  0.47769363  0.23194167  0.25585555     0.30500
C2164       C  0.47719229  0.21515657  0.26878337    -0.19000
C2165       C  0.49210794  0.21218653  0.28360657    -0.28400
C2166       C  0.50719053  0.22714798  0.28589019     0.44500
C2167       C  0.49631917  0.26125940  0.24061789     0.05700
O2168       O  0.46341090  0.23357486  0.24097564    -0.56900
H2169       H  0.46546110  0.20391304  0.26666015     0.18600
O2170       O  0.52234546  0.22463621  0.29973813    -0.63600
H2171       H  0.52031423  0.25450730  0.27371596     0.17100
C2172       C  0.48836208  0.28105297  0.24147277     0.29300
C2173       C  0.48883594  0.29363801  0.22420282    -0.24500
C2174       C  0.49707143  0.28664759  0.20584603    -0.23800
C2175       C  0.50598684  0.26718905  0.20554761     0.40800
C2176       C  0.50546032  0.25478015  0.22266951    -0.26300
O2177       O  0.47914802  0.28783858  0.25873530    -0.58200
H2178       H  0.48191220  0.30845622  0.22490815     0.16400
O2179       O  0.51484741  0.25982470  0.18831293    -0.59600
H2180       H  0.51170326  0.23966205  0.22172374     0.14900
H2181       H  0.51782006  0.23221228  0.31184679     0.46700
H2182       H  0.49026833  0.29317938  0.26722269     0.42100
H2183       H  0.52902070  0.26469834  0.18877167     0.45500
H2184       H  0.45275252  0.24241647  0.24673133     0.37000
C2185       C  0.48503145  0.98017049  0.33678518    -0.27200
C2186       C  0.50114355  0.99119333  0.32801022     0.02400
C2187       C  0.51713448  0.97969073  0.31943129     0.30500
C2188       C  0.51669440  0.95829074  0.31964078    -0.19000
C2189       C  0.50017222  0.94744445  0.32763644    -0.28400
C2190       C  0.48428600  0.95878602  0.33632412     0.44500
C2191       C  0.50092202  0.01436608  0.32759781     0.05700
O2192       O  0.53314132  0.98909747  0.31020742    -0.56900
H2193       H  0.52913652  0.95011932  0.31279486     0.18600
O2194       O  0.46792222  0.94914463  0.34464404    -0.63600
H2195       H  0.47284536  0.98810386  0.34426706     0.17100
C2196       C  0.48294432  0.02546996  0.32391673     0.29300
C2197       C  0.48308066  0.04686393  0.32339397    -0.24500
C2198       C  0.50095441  0.05814728  0.32608397    -0.23800
C2199       C  0.51895567  0.04716228  0.32969651     0.40800
C2200       C  0.51877557  0.02575687  0.33068588    -0.26300
O2201       O  0.46523145  0.01558537  0.31959869    -0.58200
H2202       H  0.46902636  0.05465687  0.32029485     0.16400
O2203       O  0.53694435  0.05713154  0.33232428    -0.59600
H2204       H  0.53280708  0.01810102  0.33410430     0.14900
H2205       H  0.47151854  0.94701975  0.35900169     0.46700
H2206       H  0.45613929  0.01834041  0.33120161     0.42100
H2207       H  0.53785267  0.05974079  0.34702721     0.45500
H2208       H  0.52893176  0.99093044  0.29597894     0.37000
C2209       C  0.39138330  0.06434354  0.25983952    -0.27200
C2210       C  0.38761635  0.08387014  0.25246172     0.02400
C2211       C  0.37581067  0.08641711  0.23512402     0.30500
C2212       C  0.36891767  0.06949709  0.22468913    -0.19000
C2213       C  0.37381625  0.04985502  0.23124729    -0.28400
C2214       C  0.38449888  0.04736709  0.24942948     0.44500
C2215       C  0.39914278  0.10080479  0.26096244     0.05700
O2216       O  0.37202451  0.10533860  0.22758704    -0.56900
H2217       H  0.36060625  0.07186192  0.21082376     0.18600
O2218       O  0.38918647  0.02852255  0.25664599    -0.63600
H2219       H  0.40078542  0.06219401  0.27303324     0.17100
C2220       C  0.39915644  0.10436082  0.28181805     0.29300
C2221       C  0.41491453  0.11538917  0.29039687    -0.24500
C2222       C  0.43093787  0.12250802  0.27835418    -0.23800
C2223       C  0.42930524  0.12136352  0.25717898     0.40800
C2224       C  0.41339790  0.11050285  0.24862633    -0.26300
O2225       O  0.38446755  0.09611124  0.29394695    -0.58200
H2226       H  0.41540397  0.11687527  0.30667165     0.16400
O2227       O  0.44393224  0.12928627  0.24477958    -0.59600
H2228       H  0.41338087  0.10800047  0.23246412     0.14900
H2229       H  0.37758357  0.02467403  0.26533234     0.46700
H2230       H  0.39121214  0.08509748  0.30151883     0.42100
H2231       H  0.45301875  0.11781061  0.24148191     0.45500
H2232       H  0.35933774  0.10974379  0.23425914     0.37000
C2233       C  0.38590099  0.89754430  0.21573983    -0.27200
C2234       C  0.39227387  0.89830762  0.23586922     0.02400
C2235       C  0.38564515  0.91418064  0.24846366     0.30500
C2236       C  0.37465807  0.93011655  0.24029230    -0.19000
C2237       C  0.37000203  0.93033214  0.21975074    -0.28400
C2238       C  0.37454410  0.91338588  0.20765870     0.44500
C2239       C  0.40945319  0.88590717  0.24246866     0.05700
O2240       O  0.39232784  0.91573313  0.26799289    -0.56900
H2241       H  0.37124997  0.94312468  0.24966016     0.18600
O2242       O  0.37042503  0.91342825  0.18738321    -0.63600
H2243       H  0.39113569  0.88552285  0.20591776     0.17100
C2244       C  0.40833585  0.87502502  0.26057970     0.29300
C2245       C  0.42610356  0.87058597  0.27098737    -0.24500
C2246       C  0.44493894  0.87669765  0.26330223    -0.23800
C2247       C  0.44617536  0.88473159  0.24373041     0.40800
C2248       C  0.42837458  0.88947953  0.23345976    -0.26300
O2249       O  0.38989237  0.86988533  0.26866671    -0.58200
H2250       H  0.42507676  0.86345887  0.28567210     0.16400
O2251       O  0.46444414  0.89018235  0.23556510    -0.59600
H2252       H  0.42937115  0.89778978  0.21940824     0.14900
H2253       H  0.35714906  0.90657720  0.18609415     0.46700
H2254       H  0.38898401  0.87699065  0.28182006     0.42100
H2255       H  0.46885232  0.87827679  0.22758671     0.45500
H2256       H  0.38021809  0.91334633  0.27651927     0.37000
C2257       C  0.36880246  0.07067052  0.10064949    -0.27200
C2258       C  0.35055647  0.08104418  0.09788438     0.02400
C2259       C  0.33407089  0.07691237  0.11069337     0.30500
C2260       C  0.33586919  0.06201810  0.12560822    -0.19000
C2261       C  0.35399263  0.05115437  0.12795151    -0.28400
C2262       C  0.37067083  0.05595656  0.11555160     0.44500
C2263       C  0.34917530  0.09571738  0.08116827     0.05700
O2264       O  0.31586457  0.08646230  0.10795221    -0.56900
H2265       H  0.32287657  0.05862330  0.13499362     0.18600
O2266       O  0.38891191  0.04636866  0.11778735    -0.63600
H2267       H  0.38172213  0.07400060  0.09112746     0.17100
C2268       C  0.34428080  0.11611171  0.08469482     0.29300
C2269       C  0.34530039  0.13001406  0.06888149    -0.24500
C2270       C  0.35174587  0.12399816  0.04956936    -0.23800
C2271       C  0.35605240  0.10347677  0.04591518     0.40800
C2272       C  0.35469224  0.08952360  0.06165038    -0.26300
O2273       O  0.33951641  0.12282478  0.10370063    -0.58200
H2274       H  0.34204161  0.14576095  0.07202372     0.16400
O2275       O  0.36196352  0.09694494  0.02716428    -0.59600
H2276       H  0.35843953  0.07384095  0.05873234     0.14900
H2277       H  0.39632649  0.05442031  0.12801527     0.46700
H2278       H  0.35264632  0.12633064  0.11001397     0.42100
H2279       H  0.34922430  0.09365921  0.01999532     0.45500
H2280       H  0.31402611  0.09519628  0.11999370     0.37000
C2281       C  0.24524270  0.98790897  0.27593723    -0.27200
C2282       C  0.24100113  0.00043855  0.25942471     0.02400
C2283       C  0.22359264  0.01280485  0.26031741     0.30500
C2284       C  0.21107521  0.01272884  0.27766708    -0.19000
C2285       C  0.21587175  0.00074578  0.29453797    -0.28400
C2286       C  0.23301620  0.98798666  0.29324470     0.44500
C2287       C  0.25535871  0.00049706  0.24184100     0.05700
O2288       O  0.21845721  0.02464403  0.24414335    -0.56900
H2289       H  0.19798801  0.02255434  0.27815517     0.18600
O2290       O  0.23818695  0.97557598  0.30897885    -0.63600
H2291       H  0.25846349  0.97824072  0.27560434     0.17100
C2292       C  0.26603019  0.01807831  0.23620186     0.29300
C2293       C  0.28159220  0.01706497  0.22169259    -0.24500
C2294       C  0.28718764  0.99857557  0.21261288    -0.23800
C2295       C  0.27576944  0.98117721  0.21759581     0.40800
C2296       C  0.26023549  0.98222560  0.23211254    -0.26300
O2297       O  0.26218426  0.03616069  0.24558908    -0.58200
H2298       H  0.28997171  0.03072627  0.21831674     0.16400
O2299       O  0.28012960  0.96281534  0.20902718    -0.59600
H2300       H  0.25227039  0.96850798  0.23620828     0.14900
H2301       H  0.23094846  0.96269937  0.30639067     0.46700
H2302       H  0.27119881  0.03638939  0.25752446     0.42100
H2303       H  0.27186168  0.96226125  0.19657165     0.45500
H2304       H  0.22096588  0.03875960  0.24853745     0.37000
C2305       C  0.59265275  0.07953268  0.24009368    -0.27200
C2306       C  0.59127578  0.09647564  0.22748082     0.02400
C2307       C  0.60046552  0.09631413  0.20845019     0.30500
C2308       C  0.61002752  0.07873472  0.20173774    -0.19000
C2309       C  0.61013734  0.06122161  0.21379249    -0.28400
C2310       C  0.60187825  0.06188062  0.23333695     0.44500
C2311       C  0.57757754  0.11264198  0.23372216     0.05700
O2312       O  0.59969306  0.11300747  0.19622232    -0.56900
H2313       H  0.61653016  0.07848818  0.18671964     0.18600
O2314       O  0.60133677  0.04499275  0.24533184    -0.63600
H2315       H  0.58532028  0.07957436  0.25474025     0.17100
C2316       C  0.55744149  0.11225671  0.22686438     0.29300
C2317       C  0.54219450  0.12070658  0.23879937    -0.24500
C2318       C  0.54705551  0.12916984  0.25755427    -0.23800
C2319       C  0.56747406  0.13220040  0.26278259     0.40800
C2320       C  0.58264312  0.12382766  0.25086843    -0.26300
O2321       O  0.55229809  0.10155705  0.20987563    -0.58200
H2322       H  0.52653826  0.11858407  0.23448780     0.16400
O2323       O  0.57263546  0.14142808  0.28058841    -0.59600
H2324       H  0.59813027  0.12415276  0.25617925     0.14900
H2325       H  0.58835530  0.03822181  0.24209203     0.46700
H2326       H  0.54926801  0.08766823  0.21464222     0.42100
H2327       H  0.57213483  0.15612188  0.27769936     0.45500
H2328       H  0.58835794  0.11042640  0.18677709     0.37000
C2329       C  0.61419141  0.92810426  0.26431722    -0.27200
C2330       C  0.61721445  0.90878145  0.25601503     0.02400
C2331       C  0.62791680  0.90671859  0.23785953     0.30500
C2332       C  0.63246539  0.92391489  0.22662454    -0.19000
C2333       C  0.62652461  0.94313044  0.23350169    -0.28400
C2334       C  0.61861588  0.94533278  0.25305392     0.44500
C2335       C  0.60308095  0.89293919  0.26234857     0.05700
O2336       O  0.63146792  0.88796226  0.22977310    -0.56900
H2337       H  0.63912311  0.92210092  0.21177783     0.18600
O2338       O  0.61291821  0.96392653  0.26028370    -0.63600
H2339       H  0.60580623  0.92988582  0.27826977     0.17100
C2340       C  0.60162296  0.88747818  0.28270089     0.29300
C2341       C  0.58326926  0.88027989  0.29016837    -0.24500
C2342       C  0.56622218  0.87891252  0.27752877    -0.23800
C2343       C  0.56860393  0.88165673  0.25661918     0.40800
C2344       C  0.58705709  0.88857028  0.24915612    -0.26300
O2345       O  0.61753230  0.89067688  0.29558844    -0.58200
H2346       H  0.58200502  0.87730579  0.30619520     0.16400
O2347       O  0.55251148  0.88003709  0.24369971    -0.59600
H2348       H  0.58799997  0.89285789  0.23340079     0.14900
H2349       H  0.59857453  0.96553580  0.25623261     0.46700
H2350       H  0.61381931  0.90275170  0.30366403     0.42100
H2351       H  0.55295899  0.86592368  0.23865349     0.45500
H2352       H  0.64486352  0.88390635  0.23508575     0.37000
C2353       C  0.64446088  0.10423618  0.08025481    -0.27200
C2354       C  0.65602625  0.08736546  0.07487542     0.02400
C2355       C  0.66664428  0.08733690  0.05645679     0.30500
C2356       C  0.66456905  0.10369997  0.04309579    -0.19000
C2357       C  0.65189358  0.12005546  0.04800784    -0.28400
C2358       C  0.64244336  0.12052205  0.06709921     0.44500
C2359       C  0.65486252  0.06935985  0.08794675     0.05700
O2360       O  0.67796334  0.07089844  0.05086369    -0.56900
H2361       H  0.67200819  0.10312784  0.02852952     0.18600
O2362       O  0.63065182  0.13660135  0.07283115    -0.63600
H2363       H  0.63639930  0.10446516  0.09450917     0.17100
C2364       C  0.67017955  0.06476098  0.10187092     0.29300
C2365       C  0.66685223  0.04990491  0.11662266    -0.24500
C2366       C  0.64811760  0.03988139  0.11794783    -0.23800
C2367       C  0.63320648  0.04390866  0.10328375     0.40800
C2368       C  0.63671235  0.05846475  0.08842189    -0.26300
O2369       O  0.68801863  0.07533666  0.10176561    -0.58200
H2370       H  0.67850670  0.04707173  0.12772671     0.16400
O2371       O  0.61509451  0.03377282  0.10339321    -0.59600
H2372       H  0.62482894  0.06191904  0.07772689     0.14900
H2373       H  0.64017840  0.14654150  0.07875225     0.46700
H2374       H  0.68577041  0.08692441  0.11101098     0.42100
H2375       H  0.60518728  0.04338341  0.10927571     0.45500
H2376       H  0.69177477  0.07377086  0.05590638     0.37000
C2377       C  0.47403845  0.98617414  0.18842674    -0.27200
C2378       C  0.48406884  0.98978013  0.17003085     0.02400
C2379       C  0.47193777  0.99299414  0.15275142     0.30500
C2380       C  0.45052252  0.99299880  0.15417863    -0.19000
C2381       C  0.44045789  0.99000930  0.17273906    -0.28400
C2382       C  0.45271437  0.98639805  0.18993146     0.44500
C2383       C  0.50705162  0.98998809  0.16923104     0.05700
O2384       O  0.48086557  0.99520644  0.13418170    -0.56900
H2385       H  0.44177726  0.99549851  0.14061178     0.18600
O2386       O  0.44407985  0.98267449  0.20838427    -0.63600
H2387       H  0.48284115  0.98344439  0.20191851     0.17100
C2388       C  0.51802035  0.00674610  0.16175200     0.29300
C2389       C  0.53945164  0.00686327  0.16194219    -0.24500
C2390       C  0.55076952  0.99039449  0.16941711    -0.23800
C2391       C  0.53969738  0.97368653  0.17706889     0.40800
C2392       C  0.51828212  0.97362000  0.17692686    -0.26300
O2393       O  0.50791668  0.02365240  0.15531101    -0.58200
H2394       H  0.54723216  0.02012509  0.15631609     0.16400
O2395       O  0.54957184  0.95728595  0.18494754    -0.59600
H2396       H  0.51036932  0.96060936  0.18295553     0.14900
H2397       H  0.44415955  0.99587508  0.21549310     0.46700
H2398       H  0.51079104  0.02466844  0.14066131     0.42100
H2399       H  0.55069494  0.96010361  0.19960386     0.45500
H2400       H  0.47749109  0.00910823  0.12973623     0.37000
C2401       C  0.59437395  0.82866477  0.43243272    -0.27200
C2402       C  0.58217734  0.84498951  0.42676408     0.02400
C2403       C  0.58412672  0.86359014  0.43678718     0.30500
C2404       C  0.59921836  0.86618229  0.45124801    -0.19000
C2405       C  0.61265984  0.85038214  0.45586266    -0.28400
C2406       C  0.60944593  0.83117818  0.44707972     0.44500
C2407       C  0.56993296  0.84389890  0.40828373     0.05700
O2408       O  0.57194121  0.87960524  0.43178550    -0.56900
H2409       H  0.60105103  0.88095659  0.45808404     0.18600
O2410       O  0.62201020  0.81527045  0.45130824    -0.63600
H2411       H  0.59297543  0.81430614  0.42467778     0.17100
C2412       C  0.57786394  0.85183320  0.39026818     0.29300
C2413       C  0.56537153  0.85423545  0.37351818    -0.24500
C2414       C  0.54498681  0.84852128  0.37438357    -0.23800
C2415       C  0.53732186  0.83938429  0.39200448     0.40800
C2416       C  0.54980830  0.83725568  0.40895940    -0.26300
O2417       O  0.59774825  0.85767672  0.38911111    -0.58200
H2418       H  0.57151545  0.86097807  0.35992425     0.16400
O2419       O  0.51747704  0.83344489  0.39312005    -0.59600
H2420       H  0.54361134  0.83117910  0.42282726     0.14900
H2421       H  0.61551127  0.80815362  0.46277443     0.46700
H2422       H  0.59766368  0.87252183  0.39120759     0.42100
H2423       H  0.50995406  0.84561971  0.39760529     0.45500
H2424       H  0.57990095  0.88774091  0.42203675     0.37000
C2425       C  0.56939769  0.16991522  0.39274826    -0.27200
C2426       C  0.58429891  0.15495698  0.39441483     0.02400
C2427       C  0.58570463  0.13986521  0.37953904     0.30500
C2428       C  0.57156209  0.13907911  0.36397816    -0.19000
C2429       C  0.55577180  0.15326137  0.36285563    -0.28400
C2430       C  0.55514655  0.16917208  0.37713115     0.44500
C2431       C  0.59747341  0.15412963  0.41236652     0.05700
O2432       O  0.60050478  0.12537764  0.38047189    -0.56900
H2433       H  0.57268003  0.12691031  0.35308102     0.18600
O2434       O  0.54036093  0.18368618  0.37642391    -0.63600
H2435       H  0.56826933  0.18168675  0.40407287     0.17100
C2436       C  0.61142597  0.16954883  0.41665714     0.29300
C2437       C  0.62494114  0.16732290  0.43276484    -0.24500
C2438       C  0.62453289  0.14993292  0.44502649    -0.23800
C2439       C  0.60977765  0.13495297  0.44115259     0.40800
C2440       C  0.59655387  0.13710615  0.42488677    -0.26300
O2441       O  0.61272702  0.18627489  0.40451527    -0.58200
H2442       H  0.63600350  0.17910821  0.43541002     0.16400
O2443       O  0.60875719  0.11762089  0.45244647    -0.59600
H2444       H  0.58570796  0.12521278  0.42179297     0.14900
H2445       H  0.52942202  0.17864446  0.38535749     0.46700
H2446       H  0.60477836  0.19686892  0.41154987     0.42100
H2447       H  0.59822431  0.12029876  0.46278518     0.45500
H2448       H  0.61253271  0.13161640  0.37403921     0.37000
C2449       C  0.73128810  0.23592391  0.52038115    -0.27200
C2450       C  0.74188894  0.24240975  0.50314730     0.02400
C2451       C  0.73704800  0.23339750  0.48443837     0.30500
C2452       C  0.72264259  0.21769396  0.48340401    -0.19000
C2453       C  0.71274199  0.21050792  0.50082836    -0.28400
C2454       C  0.71686105  0.22033083  0.51936336     0.44500
C2455       C  0.75938001  0.25679644  0.50537463     0.05700
O2456       O  0.74758151  0.23855890  0.46735437    -0.56900
H2457       H  0.72000404  0.21045244  0.46898163     0.18600
O2458       O  0.70751369  0.21432311  0.53684305    -0.63600
H2459       H  0.73462271  0.24265051  0.53491218     0.17100
C2460       C  0.76159254  0.27437247  0.49342408     0.29300
C2461       C  0.77923350  0.28634311  0.49484996    -0.24500
C2462       C  0.79492347  0.28121633  0.50823880    -0.23800
C2463       C  0.79197463  0.26442037  0.52111752     0.40800
C2464       C  0.77452100  0.25245412  0.51955485    -0.26300
O2465       O  0.74674623  0.27990134  0.48012589    -0.58200
H2466       H  0.78094824  0.29922519  0.48491819     0.16400
O2467       O  0.80633334  0.25918913  0.53507078    -0.59600
H2468       H  0.77311875  0.23926762  0.52914214     0.14900
H2469       H  0.69485432  0.22232716  0.53750085     0.46700
H2470       H  0.73644508  0.28697185  0.48841714     0.42100
H2471       H  0.80311265  0.26736023  0.54720883     0.45500
H2472       H  0.73773227  0.24575554  0.45867322     0.37000
C2473       C  0.65165206  0.02641060  0.50125542    -0.27200
C2474       C  0.66913802  0.01469839  0.49810131     0.02400
C2475       C  0.68752940  0.02489250  0.49464642     0.30500
C2476       C  0.68828256  0.04621294  0.49441941    -0.19000
C2477       C  0.67084580  0.05812439  0.49768296    -0.28400
C2478       C  0.65236118  0.04780143  0.50107574     0.44500
C2479       C  0.66812852  0.99192488  0.49822617     0.05700
O2480       O  0.70485650  0.01410867  0.49098232    -0.56900
H2481       H  0.70272084  0.05343188  0.49162706     0.18600
O2482       O  0.63492446  0.05838309  0.50476739    -0.63600
H2483       H  0.63733973  0.01891711  0.50398393     0.17100
C2484       C  0.67401755  0.98058186  0.51523624     0.29300
C2485       C  0.67337463  0.95920305  0.51488143    -0.24500
C2486       C  0.66709033  0.94843145  0.49756739    -0.23800
C2487       C  0.66114278  0.95999295  0.48053361     0.40800
C2488       C  0.66168078  0.98135059  0.48101096    -0.26300
O2489       O  0.68020014  0.99028573  0.53244565    -0.58200
H2490       H  0.67807493  0.95103743  0.52822346     0.16400
O2491       O  0.65518180  0.95065478  0.46305317    -0.59600
H2492       H  0.65722708  0.98972373  0.46770333     0.14900
H2493       H  0.62821392  0.05961251  0.49146199     0.46700
H2494       H  0.69515949  0.99073137  0.53153984     0.42100
H2495       H  0.64022774  0.94992459  0.46391016     0.45500
H2496       H  0.71198478  0.01356473  0.50411460     0.37000
C2497       C  0.75650119  0.10837150  0.42481414    -0.27200
C2498       C  0.74781047  0.11101432  0.40573696     0.02400
C2499       C  0.73059211  0.12312963  0.40358981     0.30500
C2500       C  0.72126972  0.13115113  0.42074523    -0.19000
C2501       C  0.72877725  0.12681729  0.44015239    -0.28400
C2502       C  0.74703549  0.11600935  0.44202181     0.44500
C2503       C  0.75463959  0.09764817  0.38945866     0.05700
O2504       O  0.72197750  0.12596768  0.38500708    -0.56900
H2505       H  0.70734288  0.13955343  0.41889430     0.18600
O2506       O  0.75537735  0.11221865  0.46057785    -0.63600
H2507       H  0.76982727  0.09899520  0.42653104     0.17100
C2508       C  0.77434263  0.09934824  0.38184963     0.29300
C2509       C  0.78347127  0.08257583  0.37290915    -0.24500
C2510       C  0.77318033  0.06398021  0.37186965    -0.23800
C2511       C  0.75253684  0.06317132  0.37701648     0.40800
C2512       C  0.74339560  0.08003695  0.38583141    -0.26300
O2513       O  0.78521802  0.11682083  0.38448798    -0.58200
H2514       H  0.79917992  0.08366437  0.36834509     0.16400
O2515       O  0.74193013  0.04538489  0.37597614    -0.59600
H2516       H  0.72818595  0.07863346  0.39179365     0.14900
H2517       H  0.75174914  0.09801202  0.46372873     0.46700
H2518       H  0.79376859  0.11441132  0.39652395     0.42100
H2519       H  0.73548157  0.04547748  0.36247885     0.45500
H2520       H  0.73007770  0.13682120  0.37857319     0.37000
C2521       C  0.73814052  0.92666793  0.36652946    -0.27200
C2522       C  0.74279140  0.91275669  0.38181700     0.02400
C2523       C  0.76198191  0.91366650  0.39111477     0.30500
C2524       C  0.77533349  0.92915058  0.38624700    -0.19000
C2525       C  0.76972174  0.94437140  0.37271453    -0.28400
C2526       C  0.75127885  0.94263876  0.36218729     0.44500
C2527       C  0.72659079  0.90038898  0.39107613     0.05700
O2528       O  0.76730877  0.90051177  0.40618832    -0.56900
H2529       H  0.78959603  0.92996245  0.39422932     0.18600
O2530       O  0.74553008  0.95686253  0.34829228    -0.63600
H2531       H  0.72371248  0.92592057  0.35885632     0.17100
C2532       C  0.70877471  0.90991326  0.39798216     0.29300
C2533       C  0.69767403  0.90118092  0.41354564    -0.24500
C2534       C  0.70442314  0.88338314  0.42273903    -0.23800
C2535       C  0.72030726  0.87235770  0.41386459     0.40800
C2536       C  0.73095337  0.88068322  0.39767248    -0.26300
O2537       O  0.70377829  0.92909440  0.39194361    -0.58200
H2538       H  0.68520826  0.90967353  0.41996555     0.16400
O2539       O  0.72672403  0.85443307  0.42202312    -0.59600
H2540       H  0.74410474  0.87278644  0.39191043     0.14900
H2541       H  0.75128310  0.95215244  0.33528417     0.46700
H2542       H  0.69246986  0.92731351  0.38229513     0.42100
H2543       H  0.71754763  0.84401637  0.41636505     0.45500
H2544       H  0.76267754  0.90698931  0.41888152     0.37000
C2545       C  0.88979876  0.08557222  0.34985115    -0.27200
C2546       C  0.90737871  0.07928875  0.33987380     0.02400
C2547       C  0.90780450  0.06035556  0.33023602     0.30500
C2548       C  0.89103948  0.04741289  0.33170160    -0.19000
C2549       C  0.87387992  0.05321883  0.34283955    -0.28400
C2550       C  0.87312974  0.07271891  0.35140111     0.44500
C2551       C  0.92556295  0.09204986  0.34153436     0.05700
O2552       O  0.92493590  0.05390284  0.32050101    -0.56900
H2553       H  0.89185277  0.03247491  0.32503023     0.18600
O2554       O  0.85610680  0.07936133  0.36125576    -0.63600
H2555       H  0.88926806  0.10028263  0.35705664     0.17100
C2556       C  0.93154753  0.10499899  0.32583777     0.29300
C2557       C  0.94660230  0.11953428  0.32927601    -0.24500
C2558       C  0.95554522  0.12153117  0.34843021    -0.23800
C2559       C  0.95031743  0.10759705  0.36371408     0.40800
C2560       C  0.93544905  0.09302899  0.36015430    -0.26300
O2561       O  0.92213026  0.10418427  0.30744125    -0.58200
H2562       H  0.95038114  0.13001567  0.31730036     0.16400
O2563       O  0.95947611  0.10821503  0.38226978    -0.59600
H2564       H  0.93099307  0.08297620  0.37228101     0.14900
H2565       H  0.85925070  0.07822267  0.37583230     0.46700
H2566       H  0.91042434  0.11347979  0.30861190     0.42100
H2567       H  0.94949351  0.11466798  0.39141972     0.45500
H2568       H  0.92336170  0.05850768  0.30636488     0.37000
C2569       C  0.77192879  0.01138998  0.25562376    -0.27200
C2570       C  0.75496302  0.99844014  0.25580566     0.02400
C2571       C  0.75313963  0.98452519  0.27177231     0.30500
C2572       C  0.76729355  0.98434833  0.28757702    -0.19000
C2573       C  0.78372515  0.99789316  0.28806469    -0.28400
C2574       C  0.78629160  0.01110533  0.27151256     0.44500
C2575       C  0.73777900  0.00099458  0.24113410     0.05700
O2576       O  0.73712582  0.97134672  0.27236010    -0.56900
H2577       H  0.76491039  0.97403457  0.30005349     0.18600
O2578       O  0.80170819  0.02495895  0.27153595    -0.63600
H2579       H  0.77353408  0.02239844  0.24364251     0.17100
C2580       C  0.71980835  0.01047337  0.24749304     0.29300
C2581       C  0.70271154  0.01088685  0.23494018    -0.24500
C2582       C  0.70277790  0.00198231  0.21557336    -0.23800
C2583       C  0.72109071  0.99309897  0.20884061     0.40800
C2584       C  0.73831311  0.99260256  0.22158273    -0.26300
O2585       O  0.71853385  0.01878468  0.26641834    -0.58200
H2586       H  0.68910244  0.01795282  0.24070224     0.16400
O2587       O  0.72206550  0.98385690  0.19034756    -0.59600
H2588       H  0.75190676  0.98506914  0.21641170     0.14900
H2589       H  0.81281193  0.01846176  0.26384410     0.46700
H2590       H  0.72327688  0.03291754  0.26483374     0.42100
H2591       H  0.72728893  0.99435701  0.18103075     0.45500
H2592       H  0.72701515  0.97778666  0.28136536     0.37000
C2593       C  0.76465688  0.09296294  0.61770678    -0.27200
C2594       C  0.74557673  0.08932298  0.60941891     0.02400
C2595       C  0.73709594  0.06984077  0.61063377     0.30500
C2596       C  0.74901419  0.05367401  0.61712968    -0.19000
C2597       C  0.76930391  0.05686885  0.62239161    -0.28400
C2598       C  0.77660905  0.07686842  0.62414026     0.44500
C2599       C  0.73806998  0.10340968  0.59407494     0.05700
O2600       O  0.71831860  0.06598332  0.60277425    -0.56900
H2601       H  0.74297177  0.03847788  0.61615247     0.18600
O2602       O  0.79579900  0.08073745  0.63101032    -0.63600
H2603       H  0.77115110  0.10800073  0.61709980     0.17100
C2604       C  0.71882297  0.11223864  0.59524813     0.29300
C2605       C  0.71078574  0.12182176  0.57825862    -0.24500
C2606       C  0.72172896  0.12232812  0.56001399    -0.23800
C2607       C  0.74150509  0.11463641  0.55937972     0.40800
C2608       C  0.74960707  0.10545936  0.57641915    -0.26300
O2609       O  0.70740043  0.11057506  0.61245371    -0.58200
H2610       H  0.69551316  0.12770754  0.57898593     0.16400
O2611       O  0.75286582  0.11565638  0.54206399    -0.59600
H2612       H  0.76450746  0.09870466  0.57540858     0.14900
H2613       H  0.80389073  0.08401359  0.61881359     0.46700
H2614       H  0.71129911  0.12235350  0.62086480     0.42100
H2615       H  0.75208809  0.10196215  0.53599306     0.45500
H2616       H  0.70895399  0.06666957  0.61445571     0.37000
C2617       C  0.79047550  0.90621171  0.58981779    -0.27200
C2618       C  0.77004492  0.90712170  0.58487166     0.02400
C2619       C  0.75736238  0.92142662  0.59411610     0.30500
C2620       C  0.76568335  0.93619371  0.60657650    -0.19000
C2621       C  0.78665522  0.93694101  0.60964106    -0.28400
C2622       C  0.79889051  0.92093339  0.60230023     0.44500
C2623       C  0.76272389  0.89624866  0.56722430     0.05700
O2624       O  0.73711120  0.92207234  0.58966899    -0.56900
H2625       H  0.75592065  0.94801214  0.61235362     0.18600
O2626       O  0.81924994  0.92014871  0.60621755    -0.63600
H2627       H  0.80017209  0.89500099  0.58282354     0.17100
C2628       C  0.76400246  0.90563533  0.54821323     0.29300
C2629       C  0.75213312  0.89855579  0.53237034    -0.24500
C2630       C  0.73882718  0.88248010  0.53564515    -0.23800
C2631       C  0.73916377  0.87182298  0.55401214     0.40800
C2632       C  0.75109000  0.87883452  0.56982120    -0.26300
O2633       O  0.77539705  0.92278868  0.54558388    -0.58200
H2634       H  0.75183360  0.90683717  0.51827179     0.16400
O2635       O  0.72654863  0.85565810  0.55716474    -0.59600
H2636       H  0.75009623  0.87165692  0.58447805     0.14900
H2637       H  0.82596494  0.92493291  0.59370046     0.46700
H2638       H  0.76611966  0.93420240  0.54852732     0.42100
H2639       H  0.73346209  0.84399702  0.55075815     0.45500
H2640       H  0.73592881  0.93146701  0.57806777     0.37000
C2641       C  0.89335797  0.07773459  0.66722633    -0.27200
C2642       C  0.90507629  0.08303883  0.65038656     0.02400
C2643       C  0.90225647  0.07280623  0.63202304     0.30500
C2644       C  0.88705709  0.05830818  0.63030251    -0.19000
C2645       C  0.87446797  0.05372159  0.64674996    -0.28400
C2646       C  0.87805761  0.06314535  0.66551224     0.44500
C2647       C  0.91917575  0.10027391  0.65137561     0.05700
O2648       O  0.91441977  0.07686966  0.61571528    -0.56900
H2649       H  0.88496437  0.05080073  0.61591440     0.18600
O2650       O  0.86628172  0.05880562  0.68200257    -0.63600
H2651       H  0.89554475  0.08548636  0.68146460     0.17100
C2652       C  0.91561173  0.11751902  0.63952583     0.29300
C2653       C  0.93013827  0.13276661  0.63841740    -0.24500
C2654       C  0.94822878  0.13135923  0.64937873    -0.23800
C2655       C  0.95119934  0.11463093  0.66229442     0.40800
C2656       C  0.93672503  0.09915352  0.66311312    -0.26300
O2657       O  0.89816987  0.11931898  0.62850081    -0.58200
H2658       H  0.92732692  0.14564173  0.62872948     0.16400
O2659       O  0.96871864  0.11258229  0.67313342    -0.59600
H2660       H  0.93952754  0.08594670  0.67235009     0.14900
H2661       H  0.85493173  0.06858047  0.68145024     0.46700
H2662       H  0.88783571  0.12420956  0.63820577     0.42100
H2663       H  0.96546125  0.11779258  0.68679122     0.45500
H2664       H  0.90589621  0.08473395  0.60626526     0.37000
C2665       C  0.82758686  0.98611672  0.51871182    -0.27200
C2666       C  0.83220332  0.00378494  0.50763534     0.02400
C2667       C  0.83698652  0.02135486  0.51901870     0.30500
C2668       C  0.83667226  0.02111344  0.54039946    -0.19000
C2669       C  0.83231146  0.00338241  0.55136340    -0.28400
C2670       C  0.82781643  0.98575037  0.54007646     0.44500
C2671       C  0.83173231  0.00378099  0.48450417     0.05700
O2672       O  0.84239081  0.03892580  0.50947724    -0.56900
H2673       H  0.84026432  0.03490406  0.54846190     0.18600
O2674       O  0.82317580  0.96801464  0.54973994    -0.63600
H2675       H  0.82333282  0.97243722  0.51081552     0.17100
C2676       C  0.83923528  0.98737173  0.47285323     0.29300
C2677       C  0.83800717  0.98746757  0.45150491    -0.24500
C2678       C  0.82995566  0.00401690  0.44079169    -0.23800
C2679       C  0.82274637  0.02054380  0.45234212     0.40800
C2680       C  0.82346759  0.02022949  0.47370441    -0.26300
O2681       O  0.84818873  0.97115161  0.48207924    -0.58200
H2682       H  0.84377635  0.97455355  0.44324849     0.16400
O2683       O  0.81450046  0.03705280  0.44296195    -0.59600
H2684       H  0.81707308  0.03290588  0.48183693     0.14900
H2685       H  0.80831011  0.96834419  0.55170483     0.46700
H2686       H  0.86249747  0.97517420  0.48403886     0.42100
H2687       H  0.79986620  0.03398602  0.44178097     0.45500
H2688       H  0.85713636  0.03771115  0.50703590     0.37000
C2689       C  0.85573909  0.58639728  0.44601750    -0.27200
C2690       C  0.84355528  0.58826901  0.42880805     0.02400
C2691       C  0.83083014  0.60527643  0.42695460     0.30500
C2692       C  0.83158118  0.62073988  0.44145730    -0.19000
C2693       C  0.84527003  0.61964226  0.45757070    -0.28400
C2694       C  0.85696347  0.60207771  0.46010133     0.44500
C2695       C  0.84617091  0.57367514  0.41196166     0.05700
O2696       O  0.81861966  0.60755880  0.41041031    -0.56900
H2697       H  0.82260561  0.63425676  0.43926464     0.18600
O2698       O  0.87000397  0.60034782  0.47608438    -0.63600
H2699       H  0.86521117  0.57318677  0.44796327     0.17100
C2700       C  0.86554167  0.57022920  0.40379301     0.29300
C2701       C  0.86804203  0.55691612  0.38762502    -0.24500
C2702       C  0.85148364  0.54659821  0.37924294    -0.23800
C2703       C  0.83202926  0.54999782  0.38747523     0.40800
C2704       C  0.82950581  0.56352747  0.40363399    -0.26300
O2705       O  0.88205076  0.58057885  0.41091773    -0.58200
H2706       H  0.88313994  0.55472596  0.38164544     0.16400
O2707       O  0.81529749  0.54072829  0.37950115    -0.59600
H2708       H  0.81450065  0.56605452  0.40971415     0.14900
H2709       H  0.88357161  0.60354080  0.47052696     0.46700
H2710       H  0.88989864  0.57056074  0.41881674     0.42100
H2711       H  0.81293001  0.52871566  0.38812917     0.45500
H2712       H  0.82725181  0.61410144  0.40004981     0.37000
C2713       C  0.77306822  0.74798618  0.47276313    -0.27200
C2714       C  0.75805821  0.74682841  0.48773593     0.02400
C2715       C  0.75896504  0.73056745  0.50153216     0.30500
C2716       C  0.77543059  0.71683163  0.50107574    -0.19000
C2717       C  0.79131471  0.71905289  0.48699413    -0.28400
C2718       C  0.78937017  0.73439393  0.47223873     0.44500
C2719       C  0.74330935  0.76408925  0.48992788     0.05700
O2720       O  0.74440667  0.72853135  0.51614061    -0.56900
H2721       H  0.77633646  0.70517435  0.51249821     0.18600
O2722       O  0.80380183  0.73680702  0.45754848    -0.63600
H2723       H  0.77255021  0.76006719  0.46174823     0.17100
C2724       C  0.75069336  0.78378668  0.49326116     0.29300
C2725       C  0.73749674  0.80037648  0.49382201    -0.24500
C2726       C  0.71648994  0.79818618  0.49096034    -0.23800
C2727       C  0.70888297  0.77836177  0.48817890     0.40800
C2728       C  0.72222687  0.76153669  0.48775952    -0.26300
O2729       O  0.77095141  0.78696252  0.49641381    -0.58200
H2730       H  0.74394375  0.81520959  0.49642756     0.16400
O2731       O  0.68858808  0.77524094  0.48539432    -0.59600
H2732       H  0.71614917  0.74655407  0.48516020     0.14900
H2733       H  0.79953266  0.72778609  0.44638064     0.46700
H2734       H  0.77617264  0.79262514  0.48357092     0.42100
H2735       H  0.68649085  0.77624623  0.47061715     0.45500
H2736       H  0.74938107  0.73655532  0.52776323     0.37000
C2737       C  0.15738030  0.58558484  0.39084288    -0.27200
C2738       C  0.14371330  0.58423868  0.40697747     0.02400
C2739       C  0.13080790  0.56733495  0.40820959     0.30500
C2740       C  0.13124211  0.55248903  0.39312047    -0.19000
C2741       C  0.14451600  0.55406988  0.37655762    -0.28400
C2742       C  0.15788702  0.57076679  0.37574625     0.44500
C2743       C  0.14255238  0.60090612  0.42198620     0.05700
O2744       O  0.11752881  0.56528559  0.42399801    -0.56900
H2745       H  0.12086560  0.53986454  0.39427066     0.18600
O2746       O  0.17132160  0.57304370  0.36012233    -0.63600
H2747       H  0.16733158  0.59853847  0.38958556     0.17100
C2748       C  0.15984809  0.60749436  0.43251460     0.29300
C2749       C  0.15837873  0.62338569  0.44647634    -0.24500
C2750       C  0.13975365  0.63278970  0.45027448    -0.23800
C2751       C  0.12251723  0.62640645  0.43952724     0.40800
C2752       C  0.12400727  0.61063011  0.42550202    -0.26300
O2753       O  0.17799472  0.59776085  0.43004079    -0.58200
H2754       H  0.17169231  0.62790974  0.45484894     0.16400
O2755       O  0.10414687  0.63554284  0.44258235    -0.59600
H2756       H  0.11063816  0.60602403  0.41725956     0.14900
H2757       H  0.16437966  0.58190336  0.35025849     0.46700
H2758       H  0.18642063  0.60705264  0.42183930     0.42100
H2759       H  0.10386507  0.64704750  0.43299440     0.45500
H2760       H  0.12548044  0.55894625  0.43496862     0.37000
C2761       C  0.22640256  0.74389746  0.52523221    -0.27200
C2762       C  0.23960002  0.74425348  0.50853002     0.02400
C2763       C  0.23638818  0.72979795  0.49309473     0.30500
C2764       C  0.21974258  0.71637683  0.49399280    -0.19000
C2765       C  0.20605437  0.71659578  0.51031267    -0.28400
C2766       C  0.20989612  0.73038308  0.52621660     0.44500
C2767       C  0.25607761  0.76015538  0.50719226     0.05700
O2768       O  0.24991291  0.72814181  0.47743665    -0.56900
H2769       H  0.21749759  0.70578645  0.48172144     0.18600
O2770       O  0.19720137  0.73136195  0.54256989    -0.63600
H2771       H  0.22846665  0.75467361  0.53737328     0.17100
C2772       C  0.25859566  0.77222468  0.48976442     0.29300
C2773       C  0.27345654  0.78747651  0.48905145    -0.24500
C2774       C  0.28589416  0.79185010  0.50574906    -0.23800
C2775       C  0.28333574  0.77988352  0.52327508     0.40800
C2776       C  0.26867304  0.76430495  0.52385571    -0.26300
O2777       O  0.24594370  0.76998429  0.47355511    -0.58200
H2778       H  0.27459398  0.79655213  0.47550345     0.16400
O2779       O  0.29479842  0.78344651  0.54012150    -0.59600
H2780       H  0.26705467  0.75548732  0.53752500     0.14900
H2781       H  0.18697184  0.74172976  0.53903910     0.46700
H2782       H  0.23385892  0.77824358  0.47682157     0.42100
H2783       H  0.30690064  0.77474610  0.53852255     0.45500
H2784       H  0.24211410  0.73101327  0.46500611     0.37000
C2785       C  0.01871469  0.69481465  0.50722293    -0.27200
C2786       C  0.00894514  0.67591754  0.50709237     0.02400
C2787       C  0.02118433  0.65841195  0.50710359     0.30500
C2788       C  0.04250699  0.65997124  0.50715451    -0.19000
C2789       C  0.05237432  0.67890820  0.50717408    -0.28400
C2790       C  0.04000017  0.69643226  0.50716667     0.44500
C2791       C  0.98610500  0.67470131  0.50665204     0.05700
O2792       O  0.01246459  0.63960219  0.50726847    -0.56900
H2793       H  0.05134600  0.64619478  0.50722298     0.18600
O2794       O  0.04845423  0.71536407  0.50726871    -0.63600
H2795       H  0.00976331  0.70852055  0.50704416     0.17100
C2796       C  0.97404727  0.68440092  0.52136632     0.29300
C2797       C  0.95271536  0.68362178  0.52030528    -0.24500
C2798       C  0.94264469  0.67346798  0.50449574    -0.23800
C2799       C  0.95482147  0.66351990  0.48990435     0.40800
C2800       C  0.97614762  0.66417995  0.49109810    -0.26300
O2801       O  0.98299116  0.69423110  0.53724964    -0.58200
H2802       H  0.94403295  0.69131015  0.53186180     0.16400
O2803       O  0.94613623  0.65338337  0.47408439    -0.59600
H2804       H  0.98498344  0.65669796  0.47951558     0.14900
H2805       H  0.04936833  0.71933083  0.49286861     0.46700
H2806       H  0.98184327  0.70883064  0.53407311     0.42100
H2807       H  0.94472124  0.63921716  0.47876599     0.45500
H2808       H  0.00969701  0.63668743  0.52168607     0.37000
C2809       C  0.13177144  0.75490904  0.42310457    -0.27200
C2810       C  0.11687008  0.76948329  0.42675862     0.02400
C2811       C  0.10863255  0.77151522  0.44625283     0.30500
C2812       C  0.11405163  0.75792794  0.46130092    -0.19000
C2813       C  0.12760763  0.74211604  0.45725500    -0.28400
C2814       C  0.13737208  0.74137399  0.43826169     0.44500
C2815       C  0.10647903  0.77913347  0.40973487     0.05700
O2816       O  0.09341637  0.78510297  0.45006612    -0.56900
H2817       H  0.10654088  0.75907614  0.47579737     0.18600
O2818       O  0.15130584  0.72668057  0.43381177    -0.63600
H2819       H  0.13812053  0.75322352  0.40811255     0.17100
C2820       C  0.10309813  0.80006738  0.40957630     0.29300
C2821       C  0.08677790  0.80781581  0.39878766    -0.24500
C2822       C  0.07383916  0.79482619  0.38798351    -0.23800
C2823       C  0.07935314  0.77435179  0.38561207     0.40800
C2824       C  0.09558249  0.76664156  0.39656804    -0.26300
O2825       O  0.11419763  0.81268596  0.42169277    -0.58200
H2826       H  0.08337994  0.82376975  0.40024065     0.16400
O2827       O  0.06790724  0.76129661  0.37430583    -0.59600
H2828       H  0.09827581  0.75047930  0.39637148     0.14900
H2829       H  0.16449679  0.73239584  0.43806161     0.46700
H2830       H  0.12604799  0.81666136  0.41340213     0.42100
H2831       H  0.07385729  0.76183354  0.36057187     0.45500
H2832       H  0.09983536  0.79613114  0.45791617     0.37000
C2833       C  0.94933892  0.73133949  0.39263999    -0.27200
C2834       C  0.92949474  0.73474297  0.38592960     0.02400
C2835       C  0.92566393  0.75027786  0.37202380     0.30500
C2836       C  0.94094437  0.76396691  0.36734057    -0.19000
C2837       C  0.96015309  0.76195141  0.37602508    -0.28400
C2838       C  0.96477181  0.74477274  0.38755373     0.44500
C2839       C  0.91280030  0.72596116  0.39763241     0.05700
O2840       O  0.90652940  0.75350122  0.36476610    -0.56900
H2841       H  0.93744756  0.77690558  0.35795516     0.18600
O2842       O  0.98350242  0.74244023  0.39608855    -0.63600
H2843       H  0.95247351  0.71957032  0.40354435     0.17100
C2844       C  0.91182809  0.70514473  0.40140797     0.29300
C2845       C  0.89951762  0.69799991  0.41696180    -0.24500
C2846       C  0.88858616  0.71152222  0.42928771    -0.23800
C2847       C  0.88825762  0.73220871  0.42424541     0.40800
C2848       C  0.90023321  0.73922265  0.40842535    -0.26300
O2849       O  0.92344635  0.69185703  0.39047837    -0.58200
H2850       H  0.89966589  0.68194629  0.42017122     0.16400
O2851       O  0.87728639  0.74589792  0.43532419    -0.59600
H2852       H  0.90099380  0.75536941  0.40575920     0.14900
H2853       H  0.99106271  0.73361572  0.38661401     0.46700
H2854       H  0.93409001  0.68709981  0.39986732     0.42100
H2855       H  0.88706955  0.75198820  0.44490650     0.45500
H2856       H  0.90466950  0.74325243  0.35400734     0.37000
C2857       C  0.06957412  0.90095758  0.32452201    -0.27200
C2858       C  0.07379717  0.91548832  0.33929881     0.02400
C2859       C  0.06366980  0.91481485  0.35792873     0.30500
C2860       C  0.04986608  0.89937378  0.36184321    -0.19000
C2861       C  0.04601396  0.88432885  0.34737754    -0.28400
C2862       C  0.05561574  0.88550795  0.32835913     0.44500
C2863       C  0.09082102  0.92952095  0.33667466     0.05700
O2864       O  0.06791406  0.92866066  0.37276291    -0.56900
H2865       H  0.04261318  0.89885373  0.37650701     0.18600
O2866       O  0.05263210  0.87088469  0.31398738    -0.63600
H2867       H  0.07765578  0.90119499  0.31028830     0.17100
C2868       C  0.11063263  0.92239701  0.33941610     0.29300
C2869       C  0.12646640  0.93612643  0.34166455    -0.24500
C2870       C  0.12280031  0.95697584  0.34100925    -0.23800
C2871       C  0.10323180  0.96412211  0.33681026     0.40800
C2872       C  0.08726645  0.95034125  0.33482240    -0.26300
O2873       O  0.11442877  0.90208608  0.34120800    -0.58200
H2874       H  0.14151780  0.93051021  0.34486103     0.16400
O2875       O  0.09935554  0.98447243  0.33599820    -0.59600
H2876       H  0.07198598  0.95590186  0.33289132     0.14900
H2877       H  0.04194236  0.87634285  0.30505838     0.46700
H2878       H  0.11292326  0.89907989  0.35579910     0.42100
H2879       H  0.09595088  0.98842815  0.35003611     0.45500
H2880       H  0.07925938  0.92273098  0.38051403     0.37000
C2881       C  0.90087371  0.92975761  0.36425179    -0.27200
C2882       C  0.90619852  0.92173078  0.34541222     0.02400
C2883       C  0.89733787  0.92988882  0.32789069     0.30500
C2884       C  0.88233563  0.94490004  0.32959869    -0.19000
C2885       C  0.87608658  0.95198201  0.34865255    -0.28400
C2886       C  0.88614077  0.94472936  0.36599318     0.44500
C2887       C  0.91974567  0.90381876  0.34497243     0.05700
O2888       O  0.90215062  0.92230211  0.30922524    -0.56900
H2889       H  0.87502377  0.95037042  0.31605424     0.18600
O2890       O  0.88138609  0.95178277  0.38488530    -0.63600
H2891       H  0.90787973  0.92397825  0.37784491     0.17100
C2892       C  0.93836769  0.90384061  0.33463701     0.29300
C2893       C  0.95174556  0.88752367  0.33689012    -0.24500
C2894       C  0.94701354  0.87119423  0.34970956    -0.23800
C2895       C  0.92795687  0.87082939  0.35923696     0.40800
C2896       C  0.91458954  0.88700096  0.35683875    -0.26300
O2897       O  0.94406813  0.92008055  0.32310389    -0.58200
H2898       H  0.96627730  0.88814554  0.32934133     0.16400
O2899       O  0.92234560  0.85494258  0.37128799    -0.59600
H2900       H  0.90023007  0.88664722  0.36473837     0.14900
H2901       H  0.89031424  0.96365210  0.38699768     0.46700
H2902       H  0.95102767  0.92940859  0.33253558     0.42100
H2903       H  0.91570536  0.84515852  0.36208785     0.45500
H2904       H  0.91019744  0.93304895  0.30254216     0.37000
C2905       C  0.02088972  0.75760341  0.27702044    -0.27200
C2906       C  0.00414944  0.75883112  0.26405855     0.02400
C2907       C  0.98973153  0.77420273  0.26754198     0.30500
C2908       C  0.99191461  0.78757583  0.28397325    -0.19000
C2909       C  0.00823753  0.78575133  0.29742556    -0.28400
C2910       C  0.02296971  0.77077261  0.29351940     0.44500
C2911       C  0.00150057  0.74331302  0.24774491     0.05700
O2912       O  0.97318321  0.77600886  0.25525078    -0.56900
H2913       H  0.98031320  0.79880660  0.28671859     0.18600
O2914       O  0.03927816  0.76850333  0.30606722    -0.63600
H2915       H  0.03211403  0.74589132  0.27474955     0.17100
C2916       C  0.01699330  0.73927251  0.23364721     0.29300
C2917       C  0.01515982  0.72312313  0.21993616    -0.24500
C2918       C  0.99788182  0.71065311  0.21974069    -0.23800
C2919       C  0.98207055  0.71516777  0.23346442     0.40800
C2920       C  0.98393583  0.73135670  0.24714641    -0.26300
O2921       O  0.03423238  0.75079867  0.23339267    -0.58200
H2922       H  0.02756383  0.72009702  0.20967492     0.16400
O2923       O  0.96507936  0.70330342  0.23437073    -0.59600
H2924       H  0.97192503  0.73400426  0.25796801     0.14900
H2925       H  0.04973648  0.77780549  0.30067195     0.46700
H2926       H  0.03098286  0.76252720  0.22468984     0.42100
H2927       H  0.96816235  0.69276163  0.24454763     0.45500
H2928       H  0.97787446  0.78417640  0.24361356     0.37000
C2929       C  0.05456344  0.72976204  0.61294743    -0.27200
C2930       C  0.07393978  0.73634149  0.61863445     0.02400
C2931       C  0.07599186  0.75268789  0.63196989     0.30500
C2932       C  0.05907858  0.76419506  0.63686263    -0.19000
C2933       C  0.04010839  0.75933541  0.62874150    -0.28400
C2934       C  0.03753362  0.74118236  0.61806521     0.44500
C2935       C  0.09104428  0.73067073  0.60571676    -0.08700
O2936       O  0.09475331  0.75909829  0.63800885    -0.56900
H2937       H  0.06107257  0.77794442  0.64555335     0.18600
O2938       O  0.01908504  0.73608926  0.61013190    -0.63600
H2939       H  0.05286739  0.71722993  0.60254172     0.17100
C2940       C  0.09762743  0.71058587  0.60413078     0.29300
C2941       C  0.11029028  0.70501764  0.58814630    -0.24500
C2942       C  0.11568746  0.71922713  0.57332441    -0.23800
C2943       C  0.11024275  0.73958937  0.57577462     0.40800
C2944       C  0.09813462  0.74522631  0.59202442    -0.26300
O2945       O  0.09100241  0.69623656  0.61753143    -0.58200
H2946       H  0.11435991  0.68924857  0.58635395     0.16400
O2947       O  0.11544814  0.75377797  0.56160829    -0.59600
H2948       H  0.09291846  0.76073171  0.59301717     0.14900
H2949       H  0.01279460  0.72705610  0.62028940     0.46700
H2950       H  0.07965954  0.68926087  0.61065381     0.42100
H2951       H  0.12884857  0.75892500  0.56591625     0.45500
H2952       H  0.09816836  0.75050715  0.64976102     0.37000
C2953       C  0.90606308  0.76083381  0.59853901    -0.27200
C2954       C  0.89209155  0.77496409  0.59122325     0.02400
C2955       C  0.89322888  0.79516348  0.59741431     0.30500
C2956       C  0.90945990  0.80142741  0.60932753    -0.19000
C2957       C  0.92486222  0.78773662  0.61467718    -0.28400
C2958       C  0.92248945  0.76707395  0.61010943     0.44500
C2959       C  0.87929601  0.76876110  0.57429482     0.05700
O2960       O  0.87906749  0.80893647  0.59115734    -0.56900
H2961       H  0.91071036  0.81730830  0.61315559     0.18600
O2962       O  0.93690092  0.75313003  0.61535461    -0.63600
H2963       H  0.90522348  0.74517261  0.59376758     0.17100
C2964       C  0.88504095  0.77419951  0.55452470     0.29300
C2965       C  0.87890380  0.76225196  0.53825113    -0.24500
C2966       C  0.86748554  0.74479923  0.54176302    -0.23800
C2967       C  0.85947390  0.74109247  0.56111998     0.40800
C2968       C  0.86549936  0.75304304  0.57731710    -0.26300
O2969       O  0.89860787  0.78956504  0.55125603    -0.58200
H2970       H  0.88502956  0.76526642  0.52337804     0.16400
O2971       O  0.84758285  0.72447470  0.56471006    -0.59600
H2972       H  0.86108097  0.74876635  0.59247842     0.14900
H2973       H  0.94600915  0.75213842  0.60349213     0.46700
H2974       H  0.91213868  0.78313269  0.55183856     0.42100
H2975       H  0.83377209  0.72857261  0.56060830     0.45500
H2976       H  0.88571146  0.81679751  0.58026069     0.37000
C2977       C  0.94807455  0.91602437  0.66350038    -0.27200
C2978       C  0.92714474  0.91415562  0.66045027     0.02400
C2979       C  0.91880608  0.89507876  0.65616989     0.30500
C2980       C  0.93138745  0.87829499  0.65419971    -0.19000
C2981       C  0.95230542  0.88013227  0.65681377    -0.28400
C2982       C  0.96067875  0.89901048  0.66194007     0.44500
C2983       C  0.91403908  0.93214382  0.65934542     0.05700
O2984       O  0.89853169  0.89303415  0.65232195    -0.56900
H2985       H  0.92486070  0.86388022  0.64991787     0.18600
O2986       O  0.98119823  0.90126858  0.66383998    -0.63600
H2987       H  0.95464615  0.93073060  0.66648174     0.17100
C2988       C  0.89857787  0.93523282  0.67361505     0.29300
C2989       C  0.88315221  0.94915656  0.66966431    -0.24500
C2990       C  0.88280674  0.95989950  0.65139048    -0.23800
C2991       C  0.89911627  0.95779017  0.63779623     0.40800
C2992       C  0.91467203  0.94408751  0.64192807    -0.26300
O2993       O  0.89768508  0.92371746  0.69078672    -0.58200
H2994       H  0.87082629  0.95064899  0.68035215     0.16400
O2995       O  0.89985670  0.96888095  0.62032652    -0.59600
H2996       H  0.92655557  0.94183273  0.63087162     0.14900
H2997       H  0.98416333  0.89795524  0.67812170     0.46700
H2998       H  0.90738269  0.93009971  0.70024517     0.42100
H2999       H  0.89538050  0.95951406  0.60952627     0.45500
H3000       H  0.89252265  0.88822270  0.66516658     0.37000
C3001       C  0.06705078  0.89566749  0.66208678    -0.27200
C3002       C  0.08361169  0.89431169  0.64889203     0.02400
C3003       C  0.08528846  0.87749084  0.63597548     0.30500
C3004       C  0.07002891  0.86286554  0.63567541    -0.19000
C3005       C  0.05294519  0.86462032  0.64816757    -0.28400
C3006       C  0.05173810  0.88101271  0.66178259     0.44500
C3007       C  0.09866602  0.91086660  0.64808101     0.05700
O3008       O  0.10210216  0.87499194  0.62403168    -0.56900
H3009       H  0.07152776  0.85016553  0.62544115     0.18600
O3010       O  0.03542265  0.88324368  0.67439356    -0.63600
H3011       H  0.06565541  0.90848995  0.67218104     0.17100
C3012       C  0.10266067  0.92085280  0.62978102     0.29300
C3013       C  0.11739749  0.93593624  0.62900215    -0.24500
C3014       C  0.12829554  0.94154926  0.64630663    -0.23800
C3015       C  0.12370919  0.93215016  0.66483439     0.40800
C3016       C  0.10903151  0.91682982  0.66559147    -0.26300
O3017       O  0.09155462  0.91656779  0.61280953    -0.58200
H3018       H  0.12017488  0.94339102  0.61470947     0.16400
O3019       O  0.13401889  0.93716773  0.68205399    -0.59600
H3020       H  0.10595681  0.90935651  0.67980800     0.14900
H3021       H  0.02564397  0.89162151  0.66676788     0.46700
H3022       H  0.10137581  0.91148376  0.60267846     0.42100
H3023       H  0.12530771  0.94715891  0.68906856     0.45500
H3024       H  0.09713189  0.87499021  0.60991515     0.37000
C3025       C  0.97939215  0.83929879  0.52398348    -0.27200
C3026       C  0.99647954  0.83321018  0.51282708     0.02400
C3027       C  0.01356359  0.82651790  0.52375312     0.30500
C3028       C  0.01327794  0.82580230  0.54506797    -0.19000
C3029       C  0.99610477  0.83170963  0.55629348    -0.28400
C3030       C  0.97910809  0.83870375  0.54529537     0.44500
C3031       C  0.99638959  0.83392918  0.48995500     0.05700
O3032       O  0.03061332  0.82026000  0.51374077    -0.56900
H3033       H  0.02660256  0.82035886  0.55282242     0.18600
O3034       O  0.96186175  0.84469222  0.55512595    -0.63600
H3035       H  0.96614302  0.84477895  0.51612987     0.17100
C3036       C  0.98093046  0.82470091  0.47844521     0.29300
C3037       C  0.98147430  0.82515710  0.45709742    -0.24500
C3038       C  0.99724433  0.83486491  0.44648098    -0.23800
C3039       C  0.01245545  0.84449841  0.45810433     0.40800
C3040       C  0.01196749  0.84388394  0.47939957    -0.26300
O3041       O  0.96574320  0.81420929  0.48790428    -0.58200
H3042       H  0.96963802  0.81745167  0.44883560     0.16400
O3043       O  0.02812742  0.85445626  0.44888115    -0.59600
H3044       H  0.02388019  0.85138420  0.48774392     0.14900
H3045       H  0.96337009  0.85949054  0.55701792     0.46700
H3046       H  0.95363464  0.82298931  0.48692985     0.42100
H3047       H  0.02326436  0.86850821  0.44700799     0.45500
H3048       H  0.02833449  0.80573368  0.51081102     0.37000
C3049       C  0.60258359  0.42028611  0.86378024    -0.27200
C3050       C  0.58881789  0.42481240  0.84844539     0.02400
C3051       C  0.59234630  0.44150144  0.83582268     0.30500
C3052       C  0.60943085  0.45372555  0.83892120    -0.19000
C3053       C  0.62312909  0.44942184  0.85456675    -0.28400
C3054       C  0.61967167  0.43227830  0.86682422     0.44500
C3055       C  0.57066605  0.41202870  0.84639783     0.05700
O3056       O  0.57881644  0.44638886  0.82096484    -0.56900
H3057       H  0.61173401  0.46680073  0.82936057     0.18600
O3058       O  0.63290302  0.42701344  0.88184394    -0.63600
H3059       H  0.60003271  0.40733426  0.87346615     0.17100
C3060       C  0.56984625  0.39641551  0.83198979     0.29300
C3061       C  0.55424214  0.38207117  0.83281300    -0.24500
C3062       C  0.53969144  0.38290449  0.84823673    -0.23800
C3063       C  0.53987442  0.39931789  0.86184575     0.40800
C3064       C  0.55533692  0.41367317  0.86089622    -0.26300
O3065       O  0.58488092  0.39436276  0.81786106    -0.58200
H3066       H  0.55440958  0.36947729  0.82234830     0.16400
O3067       O  0.52558502  0.40087343  0.87679963    -0.59600
H3068       H  0.55590394  0.42561123  0.87209488     0.14900
H3069       H  0.64328250  0.41849799  0.87515482     0.46700
H3070       H  0.59524943  0.38571581  0.82433526     0.42100
H3071       H  0.51438211  0.40874270  0.87074362     0.45500
H3072       H  0.58346122  0.43888282  0.80885485     0.37000
C3073       C  0.60925594  0.41908473  0.16699216    -0.27200
C3074       C  0.59533112  0.41812178  0.15113977     0.02400
C3075       C  0.59667897  0.43194486  0.13514985     0.30500
C3076       C  0.61226509  0.44613939  0.13479024    -0.19000
C3077       C  0.62692810  0.44666409  0.15013814    -0.28400
C3078       C  0.62501435  0.43322614  0.16661538     0.44500
C3079       C  0.58015554  0.40187978  0.15058634     0.05700
O3080       O  0.58271461  0.43170021  0.11985371    -0.56900
H3081       H  0.61310286  0.45639767  0.12208798     0.18600
O3082       O  0.63868637  0.43334318  0.18213935    -0.63600
H3083       H  0.60823824  0.40845593  0.17938244     0.17100
C3084       C  0.58122164  0.38695704  0.13554619     0.29300
C3085       C  0.56600238  0.37249369  0.13402866    -0.24500
C3086       C  0.54956342  0.37248393  0.14750560    -0.23800
C3087       C  0.54887059  0.38710675  0.16303854     0.40800
C3088       C  0.56421676  0.40163450  0.16453539    -0.26300
O3089       O  0.59696201  0.38660165  0.12203705    -0.58200
H3090       H  0.56707299  0.36128621  0.12214050     0.16400
O3091       O  0.53308764  0.38770629  0.17647541    -0.59600
H3092       H  0.56337656  0.41308470  0.17620979     0.14900
H3093       H  0.63303924  0.44288004  0.19223566     0.46700
H3094       H  0.60775606  0.37869038  0.12875182     0.42100
H3095       H  0.52286169  0.39664339  0.17016949     0.45500
H3096       H  0.58975986  0.42553550  0.10814080     0.37000
C3097       C  0.73304587  0.47913714  0.24198247    -0.27200
C3098       C  0.74356214  0.49680445  0.24748887     0.02400
C3099       C  0.73896409  0.51484724  0.23708905     0.30500
C3100       C  0.72487363  0.51476514  0.22111292    -0.19000
C3101       C  0.71509099  0.49684785  0.21490328    -0.28400
C3102       C  0.71910186  0.47899724  0.22594073     0.44500
C3103       C  0.76076129  0.49550929  0.26233700     0.05700
O3104       O  0.74944473  0.53227314  0.24119099    -0.56900
H3105       H  0.72241351  0.52868926  0.21289370     0.18600
O3106       O  0.70975524  0.46115158  0.22102432    -0.63600
H3107       H  0.73615192  0.46509883  0.24978914     0.17100
C3108       C  0.76279017  0.50869873  0.27906421     0.29300
C3109       C  0.77991127  0.50751834  0.29177006    -0.24500
C3110       C  0.79532761  0.49332133  0.28809781    -0.23800
C3111       C  0.79285755  0.47969810  0.27186187     0.40800
C3112       C  0.77576761  0.48076191  0.25937100    -0.26300
O3113       O  0.74824255  0.52289628  0.28308985    -0.58200
H3114       H  0.78147917  0.51821536  0.30405451     0.16400
O3115       O  0.80709020  0.46506165  0.26815171    -0.59600
H3116       H  0.77457367  0.47030128  0.24683809     0.14900
H3117       H  0.71974990  0.45360798  0.21276174     0.46700
H3118       H  0.73835594  0.51598411  0.29199077     0.42100
H3119       H  0.81512839  0.47015267  0.25657194     0.45500
H3120       H  0.73944643  0.54157278  0.24739582     0.37000
C3121       C  0.66349610  0.49343199  0.02774720    -0.27200
C3122       C  0.68149768  0.49196612  0.01642739     0.02400
C3123       C  0.69984897  0.49050156  0.02725078     0.30500
C3124       C  0.69999771  0.49091079  0.04859708    -0.19000
C3125       C  0.68200013  0.49267551  0.05999308    -0.28400
C3126       C  0.66360363  0.49383013  0.04909117     0.44500
C3127       C  0.68096027  0.49238571  0.99351004     0.05700
O3128       O  0.71783643  0.48849846  0.01712191    -0.56900
H3129       H  0.71440883  0.48983822  0.05625270     0.18600
O3130       O  0.64549138  0.49538250  0.05906374    -0.63600
H3131       H  0.64916333  0.49471914  0.01998442     0.17100
C3132       C  0.66838948  0.47922242  0.98229994     0.29300
C3133       C  0.66782008  0.48017842  0.96097174    -0.24500
C3134       C  0.67928543  0.49448359  0.95008660    -0.23800
C3135       C  0.69206929  0.50747728  0.96129841     0.40800
C3136       C  0.69282974  0.50634494  0.98260717    -0.26300
O3137       O  0.65710839  0.46479495  0.99202112    -0.58200
H3138       H  0.65810815  0.46975091  0.95291721     0.16400
O3139       O  0.70419406  0.52121356  0.95160297    -0.59600
H3140       H  0.70263707  0.51666329  0.99068472     0.14900
H3141       H  0.64269409  0.51008666  0.05985792     0.46700
H3142       H  0.64296545  0.46972458  0.99144106     0.42100
H3143       H  0.71687447  0.51380792  0.94854630     0.45500
H3144       H  0.71969279  0.47373452  0.01530541     0.37000
C3145       C  0.77703917  0.37897786  0.10146031    -0.27200
C3146       C  0.75795995  0.38800866  0.10115767     0.02400
C3147       C  0.74584767  0.38670126  0.08377026     0.30500
C3148       C  0.75362174  0.37792761  0.06630825    -0.19000
C3149       C  0.77330220  0.37016818  0.06609291    -0.28400
C3150       C  0.78470307  0.36981325  0.08410457     0.44500
C3151       C  0.75263783  0.40283122  0.11664538     0.05700
O3152       O  0.72737615  0.39609625  0.08301161    -0.56900
H3153       H  0.74469052  0.37823343  0.05261986     0.18600
O3154       O  0.80418224  0.36269677  0.08432715    -0.63600
H3155       H  0.78652718  0.38030618  0.11470966     0.17100
C3156       C  0.73512580  0.40042423  0.12833024     0.29300
C3157       C  0.72603365  0.41738082  0.13694772    -0.24500
C3158       C  0.73421335  0.43675791  0.13370993    -0.23800
C3159       C  0.75319421  0.43864224  0.12418560     0.40800
C3160       C  0.76237582  0.42160590  0.11587490    -0.26300
O3161       O  0.72567315  0.38200824  0.12953506    -0.58200
H3162       H  0.71162238  0.41552844  0.14452278     0.16400
O3163       O  0.76229476  0.45715772  0.12188844    -0.59600
H3164       H  0.77604143  0.42345892  0.10700428     0.14900
H3165       H  0.80308539  0.34848242  0.08894138     0.46700
H3166       H  0.73292264  0.37460767  0.14032223     0.42100
H3167       H  0.75987419  0.46105713  0.10764268     0.45500
H3168       H  0.71739367  0.38539539  0.08627090     0.37000
C3169       C  0.73407208  0.38326262  0.93134648    -0.27200
C3170       C  0.74238296  0.37981733  0.91216006     0.02400
C3171       C  0.75946787  0.36751765  0.91006937     0.30500
C3172       C  0.76936710  0.36062240  0.92726227    -0.19000
C3173       C  0.76256780  0.36625757  0.94663611    -0.28400
C3174       C  0.74410392  0.37667887  0.94860174     0.44500
C3175       C  0.73624969  0.39339215  0.89587119     0.05700
O3176       O  0.76768431  0.36386013  0.89141029    -0.56900
H3177       H  0.78331260  0.35225920  0.92530784     0.18600
O3178       O  0.73627783  0.38140976  0.96720820    -0.63600
H3179       H  0.72086735  0.39281203  0.93307940     0.17100
C3180       C  0.71592761  0.39450114  0.89011140     0.29300
C3181       C  0.70863220  0.41229025  0.88160541    -0.24500
C3182       C  0.72136935  0.42920678  0.87941421    -0.23800
C3183       C  0.74228529  0.42703454  0.88258613     0.40800
C3184       C  0.74963000  0.40901811  0.89064920    -0.26300
O3185       O  0.70286817  0.37891187  0.89427341    -0.58200
H3186       H  0.69259509  0.41341314  0.87846504     0.16400
O3187       O  0.75533209  0.44293209  0.87981349    -0.59600
H3188       H  0.76538355  0.40822225  0.89506300     0.14900
H3189       H  0.73980838  0.39581349  0.96947677     0.46700
H3190       H  0.69492978  0.38337444  0.90618562     0.42100
H3191       H  0.75645547  0.44953547  0.89321164     0.45500
H3192       H  0.76022517  0.35197401  0.88614230     0.37000
C3193       C  0.88496604  0.33588093  0.08501332    -0.27200
C3194       C  0.90359708  0.34528931  0.08136350     0.02400
C3195       C  0.90687445  0.35527691  0.06294057     0.30500
C3196       C  0.89131327  0.35641960  0.04871847    -0.19000
C3197       C  0.87236948  0.34755501  0.05255500    -0.28400
C3198       C  0.86945782  0.33675891  0.07070738     0.44500
C3199       C  0.91864020  0.34667506  0.09771546     0.05700
O3200       O  0.92498169  0.36462407  0.05904073    -0.56900
H3201       H  0.89395205  0.36462164  0.03481855     0.18600
O3202       O  0.85110737  0.32821841  0.07526382    -0.63600
H3203       H  0.88225818  0.32833719  0.09927136     0.17100
C3204       C  0.91463979  0.35883407  0.11465459     0.29300
C3205       C  0.92932335  0.36125957  0.12955117    -0.24500
C3206       C  0.94812593  0.35153632  0.12796928    -0.23800
C3207       C  0.95201902  0.33903042  0.11113756     0.40800
C3208       C  0.93732136  0.33677660  0.09606779    -0.26300
O3209       O  0.89648754  0.36867600  0.11661214    -0.58200
H3210       H  0.92598218  0.37083323  0.14240886     0.16400
O3211       O  0.97025054  0.32938143  0.10900767    -0.59600
H3212       H  0.94054763  0.32746011  0.08299856     0.14900
H3213       H  0.85243088  0.31378883  0.07140566     0.46700
H3214       H  0.89829395  0.38169048  0.10940697     0.42100
H3215       H  0.97905319  0.33911653  0.10175782     0.45500
H3216       H  0.92359294  0.37842896  0.06473618     0.37000
C3217       C  0.76246268  0.26121638  0.98308662    -0.27200
C3218       C  0.75578519  0.25260939  0.00124949     0.02400
C3219       C  0.76404159  0.25979796  0.01946770     0.30500
C3220       C  0.77817788  0.27575982  0.01938538    -0.19000
C3221       C  0.78420914  0.28518603  0.00124610    -0.28400
C3222       C  0.77642023  0.27730327  0.98292832     0.44500
C3223       C  0.73787186  0.23879073  0.00116508     0.05700
O3224       O  0.75782256  0.25180203  0.03752491    -0.56900
H3225       H  0.78374225  0.28133840  0.03370627     0.18600
O3226       O  0.78164492  0.28568411  0.96473415    -0.63600
H3227       H  0.75604182  0.25609475  0.96894689     0.17100
C3228       C  0.71835991  0.24711449  0.00169776     0.29300
C3229       C  0.70130098  0.23457454  0.00125915    -0.24500
C3230       C  0.70296068  0.21331351  0.00007403    -0.23800
C3231       C  0.72263950  0.20490823  0.99944931     0.40800
C3232       C  0.73987796  0.21762141  0.00007464    -0.26300
O3233       O  0.71578048  0.26766284  0.00283715    -0.58200
H3234       H  0.68659376  0.24175252  0.00172717     0.16400
O3235       O  0.72527319  0.18437871  0.99849021    -0.59600
H3236       H  0.75482207  0.21094788  0.99959811     0.14900
H3237       H  0.77079577  0.29558038  0.96172765     0.46700
H3238       H  0.71547440  0.27236242  0.98863913     0.42100
H3239       H  0.72636976  0.18123193  0.98390063     0.45500
H3240       H  0.74612229  0.26018556  0.04174605     0.37000
C3241       C  0.75789872  0.57199481  0.11112335    -0.27200
C3242       C  0.74598900  0.58938171  0.10901694     0.02400
C3243       C  0.72729926  0.59080702  0.11883469     0.30500
C3244       C  0.71979595  0.57411014  0.12917186    -0.19000
C3245       C  0.73064422  0.55583632  0.12928870    -0.28400
C3246       C  0.75029761  0.55515701  0.12119064     0.44500
C3247       C  0.75138000  0.60363027  0.09314495     0.05700
O3248       O  0.71548259  0.60769592  0.11673317    -0.56900
H3249       H  0.70466003  0.57491725  0.13541138     0.18600
O3250       O  0.76148519  0.53770791  0.12164036    -0.63600
H3251       H  0.77235779  0.57088692  0.10346954     0.17100
C3252       C  0.76862341  0.61572543  0.09496759     0.29300
C3253       C  0.77693082  0.62452147  0.07778228    -0.24500
C3254       C  0.76852067  0.62067830  0.05865574    -0.23800
C3255       C  0.74998944  0.61030658  0.05724613     0.40800
C3256       C  0.74152341  0.60182611  0.07453261    -0.26300
O3257       O  0.77808824  0.61794864  0.11323849    -0.58200
H3258       H  0.79097631  0.63282047  0.07929864     0.16400
O3259       O  0.74082618  0.60711345  0.03897220    -0.59600
H3260       H  0.72815069  0.59244392  0.07314637     0.14900
H3261       H  0.76947337  0.53854536  0.13425934     0.46700
H3262       H  0.78908983  0.60776303  0.11325345     0.42100
H3263       H  0.73231009  0.61923961  0.03673320     0.45500
H3264       H  0.72003702  0.61704059  0.12751460     0.37000
C3265       C  0.74959895  0.59989208  0.92085186    -0.27200
C3266       C  0.76120941  0.60014345  0.90313971     0.02400
C3267       C  0.77940486  0.61092520  0.90249362     0.30500
C3268       C  0.78661482  0.62007454  0.92006386    -0.19000
C3269       C  0.77604007  0.61796610  0.93841877    -0.28400
C3270       C  0.75691402  0.60861714  0.93848773     0.44500
C3271       C  0.75606255  0.58525040  0.88768053     0.05700
O3272       O  0.79063831  0.61167785  0.88509074    -0.56900
H3273       H  0.80123779  0.62745002  0.91960631     0.18600
O3274       O  0.74589190  0.60666205  0.95593055    -0.63600
H3275       H  0.73556966  0.59141524  0.92142520     0.17100
C3276       C  0.76556332  0.56622128  0.88856014     0.29300
C3277       C  0.75511269  0.54905791  0.88217069    -0.24500
C3278       C  0.73525404  0.55089441  0.87518201    -0.23800
C3279       C  0.72732378  0.57024884  0.87101039     0.40800
C3280       C  0.73770262  0.58736596  0.87751268    -0.26300
O3281       O  0.78377117  0.56395371  0.89819508    -0.58200
H3282       H  0.76161047  0.53428417  0.88492100     0.16400
O3283       O  0.70854958  0.57250109  0.86253887    -0.59600
H3284       H  0.73039451  0.60200238  0.87668577     0.14900
H3285       H  0.73698294  0.61870823  0.95633406     0.46700
H3286       H  0.78033783  0.56100100  0.91246568     0.42100
H3287       H  0.71092579  0.57217518  0.84776361     0.45500
H3288       H  0.80118072  0.60116239  0.88666423     0.37000
C3289       C  0.88281501  0.65541298  0.08810892    -0.27200
C3290       C  0.90288346  0.65009703  0.08361783     0.02400
C3291       C  0.90761205  0.64313693  0.06403494     0.30500
C3292       C  0.89227552  0.64022378  0.04986011    -0.19000
C3293       C  0.87211891  0.64481762  0.05457720    -0.28400
C3294       C  0.86751464  0.65300578  0.07370990     0.44500
C3295       C  0.91832214  0.64960412  0.09987308     0.05700
O3296       O  0.92716560  0.63866354  0.05873440    -0.56900
H3297       H  0.89617083  0.63433231  0.03509323     0.18600
O3298       O  0.84800920  0.65790578  0.07881055    -0.63600
H3299       H  0.87878298  0.66056277  0.10309795     0.17100
C3300       C  0.92151923  0.66599283  0.11311226     0.29300
C3301       C  0.93590144  0.66441589  0.12861510    -0.24500
C3302       C  0.94722275  0.64659474  0.13120418    -0.23800
C3303       C  0.94386699  0.63025080  0.11787034     0.40800
C3304       C  0.92954738  0.63185246  0.10256521    -0.26300
O3305       O  0.91120326  0.68379896  0.11057914    -0.58200
H3306       H  0.93822106  0.67720822  0.13856516     0.16400
O3307       O  0.95429087  0.61242550  0.11971064    -0.59600
H3308       H  0.92694641  0.61887829  0.09291632     0.14900
H3309       H  0.84211359  0.64532664  0.08445518     0.46700
H3310       H  0.90148548  0.68446792  0.12197813     0.42100
H3311       H  0.94581686  0.60382616  0.12859158     0.45500
H3312       H  0.93337390  0.65182606  0.05512736     0.37000
C3313       C  0.80250968  0.47367345  0.00425073    -0.27200
C3314       C  0.82104703  0.48375045  0.00106083     0.02400
C3315       C  0.83844806  0.47155734  0.99837046     0.30500
C3316       C  0.83715567  0.45019648  0.99905629    -0.19000
C3317       C  0.81858869  0.44011158  0.00213882    -0.28400
C3318       C  0.80115741  0.45234269  0.00474707     0.44500
C3319       C  0.82197899  0.50677737  0.00061106     0.05700
O3320       O  0.85687888  0.48030963  0.99468091    -0.56900
H3321       H  0.85084356  0.44147546  0.99689054     0.18600
O3322       O  0.78256217  0.44369791  0.00786153    -0.63600
H3323       H  0.78887201  0.48239901  0.00669461     0.17100
C3324       C  0.80769017  0.51836546  0.98973282     0.29300
C3325       C  0.80818796  0.53971004  0.99023720    -0.24500
C3326       C  0.82314521  0.55042019  0.00099972    -0.23800
C3327       C  0.83776889  0.53892542  0.01146564     0.40800
C3328       C  0.83698133  0.51749815  0.01139136    -0.26300
O3329       O  0.79318424  0.50901197  0.97828033    -0.58200
H3330       H  0.79683176  0.54796983  0.98185769     0.16400
O3331       O  0.85230629  0.54843621  0.02273095    -0.59600
H3332       H  0.84799511  0.50924583  0.02019945     0.14900
H3333       H  0.78111096  0.44272364  0.02272334     0.46700
H3334       H  0.79928411  0.50760352  0.96466926     0.42100
H3335       H  0.86447377  0.54879147  0.01397376     0.45500
H3336       H  0.85750298  0.48204484  0.97983336     0.37000
C3337       C  0.56695008  0.58995034  0.87063265    -0.27200
C3338       C  0.58088604  0.59035214  0.85471461     0.02400
C3339       C  0.57854708  0.60455456  0.83915449     0.30500
C3340       C  0.56309460  0.61896264  0.84033342    -0.19000
C3341       C  0.54974748  0.61938225  0.85692424    -0.28400
C3342       C  0.55139467  0.60415199  0.87178154     0.44500
C3343       C  0.59847733  0.57667701  0.85538114     0.05700
O3344       O  0.59168824  0.60491577  0.82312347    -0.56900
H3345       H  0.56197315  0.63018389  0.82849901     0.18600
O3346       O  0.53852415  0.60346440  0.88801341    -0.63600
H3347       H  0.56843777  0.57880451  0.88251042     0.17100
C3348       C  0.61223078  0.57791324  0.87147167     0.29300
C3349       C  0.62811671  0.56410481  0.87283856    -0.24500
C3350       C  0.63055270  0.54875854  0.85834923    -0.23800
C3351       C  0.61698367  0.54790189  0.84189129     0.40800
C3352       C  0.60115612  0.56188862  0.84048021    -0.26300
O3353       O  0.61045995  0.59288530  0.88571690    -0.58200
H3354       H  0.63847017  0.56538258  0.88542249     0.16400
O3355       O  0.61876111  0.53330234  0.82728878    -0.59600
H3356       H  0.59061733  0.56084813  0.82802456     0.14900
H3357       H  0.52736805  0.59436123  0.88381402     0.46700
H3358       H  0.60424441  0.58628014  0.89763943     0.42100
H3359       H  0.61038882  0.52184092  0.83213056     0.45500
H3360       H  0.60290719  0.61389844  0.82739637     0.37000
C3361       C  0.41672595  0.60923284  0.83804202    -0.27200
C3362       C  0.41942249  0.59048368  0.84739408     0.02400
C3363       C  0.43733524  0.58655325  0.85806479     0.30500
C3364       C  0.45195097  0.60171679  0.86007604    -0.19000
C3365       C  0.44889731  0.62089060  0.85153404    -0.28400
C3366       C  0.43132292  0.62440145  0.83996312     0.44500
C3367       C  0.40238021  0.57618883  0.84817999     0.05700
O3368       O  0.44055521  0.56794749  0.86661587    -0.56900
H3369       H  0.46552138  0.59857296  0.86864980     0.18600
O3370       O  0.42752850  0.64302716  0.83171900    -0.63600
H3371       H  0.40283296  0.61242301  0.83000884     0.17100
C3372       C  0.39155773  0.57383017  0.86623319     0.29300
C3373       C  0.37503201  0.56076726  0.86698529    -0.24500
C3374       C  0.36905083  0.54960044  0.84990528    -0.23800
C3375       C  0.37994198  0.55212791  0.83169713     0.40800
C3376       C  0.39637374  0.56553842  0.83091284    -0.26300
O3377       O  0.39662937  0.58484883  0.88304377    -0.58200
H3378       H  0.36696880  0.55936866  0.88115532     0.16400
O3379       O  0.37465733  0.54175386  0.81458066    -0.59600
H3380       H  0.40455711  0.56750301  0.81687329     0.14900
H3381       H  0.43190644  0.64193348  0.81744743     0.46700
H3382       H  0.40324657  0.57512116  0.89228515     0.42100
H3383       H  0.38310372  0.52936136  0.81470309     0.45500
H3384       H  0.43916573  0.57005166  0.88137133     0.37000
C3385       C  0.58672716  0.61268092  0.15894204    -0.27200
C3386       C  0.58268829  0.59402986  0.14969079     0.02400
C3387       C  0.56386994  0.59089762  0.14032896     0.30500
C3388       C  0.54985764  0.60668863  0.13931620    -0.19000
C3389       C  0.55425114  0.62571868  0.14765459    -0.28400
C3390       C  0.57269640  0.62849281  0.15797522     0.44500
C3391       C  0.59862997  0.57836013  0.14890781     0.05700
O3392       O  0.55893813  0.57229711  0.13254146    -0.56900
H3393       H  0.53554910  0.60405150  0.13181788     0.18600
O3394       O  0.57749476  0.64674399  0.16657433    -0.63600
H3395       H  0.60112340  0.61522393  0.16630261     0.17100
C3396       C  0.60570432  0.57104005  0.13023193     0.29300
C3397       C  0.62075136  0.55625146  0.12963819    -0.24500
C3398       C  0.62947052  0.54890391  0.14749371    -0.23800
C3399       C  0.62273597  0.55660660  0.16619342     0.40800
C3400       C  0.60733779  0.57115303  0.16678902    -0.26300
O3401       O  0.59828615  0.57853337  0.11243073    -0.58200
H3402       H  0.62594910  0.55085097  0.11508592     0.16400
O3403       O  0.63053821  0.54949201  0.18397456    -0.59600
H3404       H  0.60209869  0.57675170  0.18125046     0.14900
H3405       H  0.58423236  0.65457151  0.15573956     0.46700
H3406       H  0.60585787  0.59125786  0.11005062     0.42100
H3407       H  0.64075415  0.55965578  0.18811696     0.45500
H3408       H  0.55806550  0.57421631  0.11773024     0.37000
C3409       C  0.43885326  0.59231840  0.13465903    -0.27200
C3410       C  0.42649909  0.59118595  0.15180738     0.02400
C3411       C  0.42989288  0.60457053  0.16794393     0.30500
C3412       C  0.44442382  0.61991205  0.16602675    -0.19000
C3413       C  0.45568312  0.62210069  0.14808755    -0.28400
C3414       C  0.45326103  0.60755491  0.13263980     0.44500
C3415       C  0.40854617  0.57786824  0.15108318     0.05700
O3416       O  0.41847922  0.60339807  0.18519926    -0.56900
H3417       H  0.44631899  0.63054267  0.17832170     0.18600
O3418       O  0.46386181  0.60877354  0.11487448    -0.63600
H3419       H  0.43655718  0.58190144  0.12223345     0.17100
C3420       C  0.39476980  0.58004837  0.13509127     0.29300
C3421       C  0.37890317  0.56645435  0.13289602    -0.24500
C3422       C  0.37601525  0.55065773  0.14671525    -0.23800
C3423       C  0.38915512  0.54900958  0.16339539     0.40800
C3424       C  0.40538499  0.56259929  0.16546897    -0.26300
O3425       O  0.39686168  0.59536086  0.12128861    -0.58200
H3426       H  0.36872727  0.56837647  0.12024483     0.16400
O3427       O  0.38662986  0.53395759  0.17738612    -0.59600
H3428       H  0.41580705  0.56086751  0.17793522     0.14900
H3429       H  0.47574290  0.59982932  0.11673094     0.46700
H3430       H  0.38992692  0.60716347  0.12742641     0.42100
H3431       H  0.39441435  0.52229340  0.17206816     0.45500
H3432       H  0.40670946  0.61235821  0.18280135     0.37000
C3433       C  0.51962090  0.73241435  0.23645112    -0.27200
C3434       C  0.50181267  0.74259955  0.24197492     0.02400
C3435       C  0.48366977  0.73734536  0.23214657     0.30500
C3436       C  0.48375867  0.72300954  0.21640793    -0.19000
C3437       C  0.50180557  0.71357707  0.21004858    -0.28400
C3438       C  0.51975682  0.71808047  0.22075685     0.44500
C3439       C  0.50292935  0.76038304  0.25594224     0.05700
O3440       O  0.46608470  0.74739922  0.23660547    -0.56900
H3441       H  0.46974514  0.72006184  0.20849975     0.18600
O3442       O  0.53766651  0.70885034  0.21583149    -0.63600
H3443       H  0.53371335  0.73613270  0.24390129     0.17100
C3444       C  0.49132298  0.76180743  0.27380292     0.29300
C3445       C  0.49188446  0.77956032  0.28562977    -0.24500
C3446       C  0.50382160  0.79620680  0.27983969    -0.23800
C3447       C  0.51594462  0.79438150  0.26233520     0.40800
C3448       C  0.51554611  0.77662998  0.25076171    -0.26300
O3449       O  0.47924429  0.74604198  0.27973302    -0.58200
H3450       H  0.48246818  0.78053910  0.29898447     0.16400
O3451       O  0.52853300  0.80981745  0.25650976    -0.59600
H3452       H  0.52476096  0.77580128  0.23724807     0.14900
H3453       H  0.54508591  0.71880182  0.20741971     0.46700
H3454       H  0.48783518  0.73772154  0.28873232     0.42100
H3455       H  0.52143228  0.81667647  0.24526442     0.45500
H3456       H  0.45786995  0.73769361  0.24454385     0.37000
C3457       C  0.50780605  0.69324519  0.02283125    -0.27200
C3458       C  0.50102866  0.67568797  0.01269990     0.02400
C3459       C  0.49555892  0.65896982  0.02499681     0.30500
C3460       C  0.49680518  0.66006721  0.04630813    -0.19000
C3461       C  0.50291924  0.67784913  0.05634641    -0.28400
C3462       C  0.50851020  0.69451855  0.04413538     0.44500
C3463       C  0.49963855  0.67512348  0.98960803     0.05700
O3464       O  0.48841538  0.64148533  0.01648418    -0.56900
H3465       H  0.49236301  0.64697335  0.05505968     0.18600
O3466       O  0.51477925  0.71228217  0.05279458    -0.63600
H3467       H  0.51284313  0.70619869  0.01422193     0.17100
C3468       C  0.49302333  0.69206643  0.97826322     0.29300
C3469       C  0.49259821  0.69155110  0.95693547    -0.24500
C3470       C  0.49795214  0.67410138  0.94589688    -0.23800
C3471       C  0.50388959  0.65691908  0.95714802     0.40800
C3472       C  0.50498757  0.65763124  0.97850516    -0.26300
O3473       O  0.48654304  0.70929987  0.98778853    -0.58200
H3474       H  0.48770663  0.70497515  0.94897883     0.16400
O3475       O  0.50892036  0.63928441  0.94748588    -0.59600
H3476       H  0.51048698  0.64438843  0.98632118     0.14900
H3477       H  0.52970470  0.71117636  0.05366820     0.46700
H3478       H  0.47217619  0.70672358  0.99124306     0.42100
H3479       H  0.52369440  0.64018603  0.94508191     0.45500
H3480       H  0.47366614  0.64362537  0.01492248     0.37000
C3481       C  0.60654053  0.74364944  0.07134424    -0.27200
C3482       C  0.60752307  0.75423236  0.08966299     0.02400
C3483       C  0.61863385  0.77221811  0.09094601     0.30500
C3484       C  0.62744227  0.78020844  0.07353861    -0.19000
C3485       C  0.62476504  0.77064097  0.05474750    -0.28400
C3486       C  0.61495846  0.75179169  0.05387143     0.44500
C3487       C  0.59432389  0.74756533  0.10612807     0.05700
O3488       O  0.62052516  0.78219368  0.10901825    -0.56900
H3489       H  0.63521171  0.79459654  0.07458689     0.18600
O3490       O  0.61318127  0.74143488  0.03600802    -0.63600
H3491       H  0.59808376  0.72964210  0.07032330     0.17100
C3492       C  0.57679635  0.75873101  0.11072368     0.29300
C3493       C  0.56069406  0.74927762  0.12054813    -0.24500
C3494       C  0.56211544  0.72891618  0.12613014    -0.23800
C3495       C  0.58059542  0.71854177  0.12360590     0.40800
C3496       C  0.59650795  0.72789282  0.11347814    -0.26300
O3497       O  0.57427460  0.77795035  0.10339663    -0.58200
H3498       H  0.54663346  0.75744350  0.12257385     0.16400
O3499       O  0.58238058  0.69847931  0.12851932    -0.59600
H3500       H  0.60989855  0.71918725  0.10979111     0.14900
H3501       H  0.59910447  0.74380535  0.03144793     0.46700
H3502       H  0.57584478  0.78695328  0.11526293     0.42100
H3503       H  0.58857792  0.69835230  0.14212729     0.45500
H3504       H  0.61280109  0.79495421  0.10748236     0.37000
C3505       C  0.57491385  0.75386500  0.88995134    -0.27200
C3506       C  0.59370361  0.74411971  0.88870280     0.02400
C3507       C  0.59527371  0.72526848  0.87920879     0.30500
C3508       C  0.57783205  0.71558801  0.87253674    -0.19000
C3509       C  0.55870244  0.72446851  0.87550125    -0.28400
C3510       C  0.55742066  0.74417579  0.88340980     0.44500
C3511       C  0.60991822  0.75152035  0.90169691     0.05700
O3512       O  0.61351733  0.71549170  0.87798436    -0.56900
H3513       H  0.57923224  0.70052364  0.86625763     0.18600
O3514       O  0.53913185  0.75361017  0.88596013    -0.63600
H3515       H  0.57357140  0.76832763  0.89753889     0.17100
C3516       C  0.61712451  0.77135577  0.89970006     0.29300
C3517       C  0.62644439  0.78066819  0.91610844    -0.24500
C3518       C  0.62798538  0.77044218  0.93460708    -0.23800
C3519       C  0.62299044  0.74983161  0.93574392     0.40800
C3520       C  0.61405597  0.74043770  0.91922858    -0.26300
O3521       O  0.61380051  0.78209117  0.88231141    -0.58200
H3522       H  0.63065568  0.79645728  0.91490608     0.16400
O3523       O  0.62528672  0.73921748  0.95335684    -0.59600
H3524       H  0.60849640  0.72510424  0.92085002     0.14900
H3525       H  0.53669074  0.76088813  0.87312254     0.46700
H3526       H  0.60236240  0.79128681  0.88540256     0.42100
H3527       H  0.63967356  0.73500501  0.95351229     0.45500
H3528       H  0.61991758  0.72066160  0.86547690     0.37000
C3529       C  0.66668619  0.88483590  0.07719868    -0.27200
C3530       C  0.65199595  0.89993625  0.07895871     0.02400
C3531       C  0.63676234  0.90153191  0.06433444     0.30500
C3532       C  0.63579651  0.88753055  0.04859213    -0.19000
C3533       C  0.64976733  0.87155177  0.04729501    -0.28400
C3534       C  0.66565229  0.87060712  0.06157058     0.44500
C3535       C  0.65154259  0.91306250  0.09688415     0.05700
O3536       O  0.62266265  0.91670481  0.06543772    -0.56900
H3537       H  0.62363618  0.88888390  0.03775407     0.18600
O3538       O  0.68004433  0.85570906  0.06067606    -0.63600
H3539       H  0.67853119  0.88362051  0.08840552     0.17100
C3540       C  0.63646982  0.91031134  0.11157040     0.29300
C3541       C  0.63454310  0.92413016  0.12735829    -0.24500
C3542       C  0.64768428  0.94077875  0.12893726    -0.23800
C3543       C  0.66356320  0.94281872  0.11475827     0.40800
C3544       C  0.66532540  0.92900798  0.09880765    -0.26300
O3545       O  0.62312234  0.89448499  0.11022036    -0.58200
H3546       H  0.62245549  0.92196112  0.13819839     0.16400
O3547       O  0.67670000  0.95884111  0.11560397    -0.59600
H3548       H  0.67703614  0.93112980  0.08755072     0.14900
H3549       H  0.67525904  0.84505912  0.07007853     0.46700
H3550       H  0.63004879  0.88293786  0.11677040     0.42100
H3551       H  0.68865387  0.95371813  0.12302137     0.45500
H3552       H  0.61060628  0.91047203  0.07181480     0.37000
C3553       C  0.73809618  0.76561940  0.01084179    -0.27200
C3554       C  0.74041447  0.75160307  0.99501417     0.02400
C3555       C  0.72685191  0.75259618  0.97862896     0.30500
C3556       C  0.71142014  0.76725993  0.97831522    -0.19000
C3557       C  0.70884895  0.78105430  0.99431617    -0.28400
C3558       C  0.72257119  0.78017272  0.01060000     0.44500
C3559       C  0.75606227  0.73522187  0.99645779     0.05700
O3560       O  0.72753347  0.73827556  0.96364390    -0.56900
H3561       H  0.70081940  0.76718554  0.96587282     0.18600
O3562       O  0.72079153  0.79324693  0.02656765    -0.63600
H3563       H  0.74827114  0.76513099  0.02362257     0.17100
C3564       C  0.77001458  0.73134883  0.98074952     0.29300
C3565       C  0.78350673  0.71493225  0.98204295    -0.24500
C3566       C  0.78386303  0.70233940  0.99914563    -0.23800
C3567       C  0.77035810  0.70670721  0.01515532     0.40800
C3568       C  0.75676520  0.72295467  0.01373157    -0.26300
O3569       O  0.77066994  0.74355126  0.96405670    -0.58200
H3570       H  0.79372708  0.71204354  0.96957926     0.16400
O3571       O  0.76972674  0.69475593  0.03204624    -0.59600
H3572       H  0.74624906  0.72559819  0.02600728     0.14900
H3573       H  0.72893410  0.80524375  0.02274408     0.46700
H3574       H  0.77966005  0.75494006  0.96783929     0.42100
H3575       H  0.75991569  0.68387161  0.02884470     0.45500
H3576       H  0.73176533  0.74561803  0.95129396     0.37000
C3577       C  0.40574805  0.72286535  0.11392962    -0.27200
C3578       C  0.40750466  0.74217424  0.10555499     0.02400
C3579       C  0.42507217  0.75369634  0.10892512     0.30500
C3580       C  0.44149125  0.74502200  0.11876869    -0.19000
C3581       C  0.44054415  0.72494580  0.12539411    -0.28400
C3582       C  0.42208918  0.71425056  0.12406520     0.44500
C3583       C  0.39356105  0.74853901  0.08964195     0.05700
O3584       O  0.42699607  0.77277214  0.10101591    -0.56900
H3585       H  0.45542756  0.75355409  0.12002015     0.18600
O3586       O  0.42057224  0.69460220  0.13048248    -0.63600
H3587       H  0.39227824  0.71392064  0.11126870     0.17100
C3588       C  0.39478375  0.73912018  0.07061473     0.29300
C3589       C  0.38733372  0.74902042  0.05363475    -0.24500
C3590       C  0.37886803  0.76831789  0.05549697    -0.23800
C3591       C  0.37562709  0.77667227  0.07481466     0.40800
C3592       C  0.38293514  0.76667619  0.09182205    -0.26300
O3593       O  0.40552915  0.72155910  0.06811924    -0.58200
H3594       H  0.38983478  0.74242186  0.03886658     0.16400
O3595       O  0.36604149  0.79493801  0.07708815    -0.59600
H3596       H  0.38183023  0.77388943  0.10647033     0.14900
H3597       H  0.41473900  0.69545237  0.14425171     0.46700
H3598       H  0.39539679  0.71057474  0.06936562     0.42100
H3599       H  0.37695199  0.80488694  0.07972530     0.45500
H3600       H  0.43264332  0.77079986  0.08728659     0.37000
C3601       C  0.38710253  0.73960159  0.91798865    -0.27200
C3602       C  0.38877531  0.75046442  0.89990201     0.02400
C3603       C  0.38105880  0.77015789  0.89870071     0.30500
C3604       C  0.37468778  0.77983660  0.91631716    -0.19000
C3605       C  0.37602212  0.76993706  0.93503793    -0.28400
C3606       C  0.38075996  0.74920881  0.93558539     0.44500
C3607       C  0.40395823  0.74338250  0.88540872     0.05700
O3608       O  0.38117235  0.78039804  0.88068619    -0.56900
H3609       H  0.37009060  0.79553606  0.91550855     0.18600
O3610       O  0.38171561  0.73887259  0.95348308    -0.63600
H3611       H  0.39299048  0.72434562  0.91901842     0.17100
C3612       C  0.42274691  0.75345074  0.88470068     0.29300
C3613       C  0.43977394  0.74334572  0.87760336    -0.24500
C3614       C  0.43837384  0.72320754  0.87132531    -0.23800
C3615       C  0.41923294  0.71377624  0.87022460     0.40800
C3616       C  0.40213820  0.72395699  0.87724802    -0.26300
O3617       O  0.42507991  0.77235491  0.89293244    -0.58200
H3618       H  0.45433313  0.75084377  0.87827613     0.16400
O3619       O  0.41729886  0.69406083  0.86405109    -0.59600
H3620       H  0.38782298  0.71601245  0.87807642     0.14900
H3621       H  0.36827007  0.73240579  0.95500123     0.46700
H3622       H  0.42839457  0.77002771  0.90733801     0.42100
H3623       H  0.41855236  0.68585552  0.87651641     0.45500
H3624       H  0.39124845  0.79140065  0.88223765     0.37000
C3625       C  0.35902352  0.88859959  0.07768873    -0.27200
C3626       C  0.34160143  0.90042639  0.07639051     0.02400
C3627       C  0.32701094  0.89600582  0.06164463     0.30500
C3628       C  0.33039381  0.88020226  0.04786202    -0.19000
C3629       C  0.34826015  0.86862508  0.04870573    -0.28400
C3630       C  0.36246657  0.87285611  0.06410897     0.44500
C3631       C  0.33943352  0.91745628  0.09057515     0.05700
O3632       O  0.30969963  0.90731417  0.06029636    -0.56900
H3633       H  0.31920314  0.87725793  0.03631448     0.18600
O3634       O  0.37968342  0.86151754  0.06633148    -0.63600
H3635       H  0.37017111  0.89174529  0.08924733     0.17100
C3636       C  0.33120298  0.91433157  0.10985969     0.29300
C3637       C  0.33297561  0.92937129  0.12461407    -0.24500
C3638       C  0.34342665  0.94746151  0.12055605    -0.23800
C3639       C  0.35081173  0.95090871  0.10086759     0.40800
C3640       C  0.34880809  0.93591789  0.08606782    -0.26300
O3641       O  0.32224318  0.89625676  0.11467589    -0.58200
H3642       H  0.32718469  0.92633796  0.13961125     0.16400
O3643       O  0.36062828  0.96853755  0.09609664    -0.59600
H3644       H  0.35540785  0.93832613  0.07128652     0.14900
H3645       H  0.39058677  0.86952837  0.05984399     0.46700
H3646       H  0.33326478  0.88777581  0.12024536     0.42100
H3647       H  0.34979079  0.97807062  0.09208172     0.45500
H3648       H  0.30011546  0.90101705  0.06994246     0.37000
C3649       C  0.23511241  0.72728251  0.97574298    -0.27200
C3650       C  0.24256980  0.73619941  0.99350263     0.02400
C3651       C  0.23441640  0.72974152  0.01207960     0.30500
C3652       C  0.21957529  0.71439690  0.01274672    -0.19000
C3653       C  0.21252558  0.70487033  0.99502596    -0.28400
C3654       C  0.22032593  0.71188313  0.97634035     0.44500
C3655       C  0.26026163  0.75053577  0.99265135     0.05700
O3656       O  0.24147192  0.73775141  0.02980830    -0.56900
H3657       H  0.21418220  0.70939194  0.02734977     0.18600
O3658       O  0.21391090  0.70360371  0.95848214    -0.63600
H3659       H  0.24119623  0.73192869  0.96128398     0.17100
C3660       C  0.27954727  0.74334166  0.98729398     0.29300
C3661       C  0.29639799  0.75629575  0.98757593    -0.24500
C3662       C  0.29475062  0.77695067  0.99285364    -0.23800
C3663       C  0.27523001  0.78437967  0.99750836     0.40800
C3664       C  0.25829668  0.77118006  0.99766187    -0.26300
O3665       O  0.28228961  0.72331584  0.98263674    -0.58200
H3666       H  0.31099519  0.74992432  0.98374493     0.16400
O3667       O  0.27258021  0.80426183  0.00268900    -0.59600
H3668       H  0.24358075  0.77708221  0.00177009     0.14900
H3669       H  0.22431963  0.69342392  0.95486009     0.46700
H3670       H  0.28158753  0.72261468  0.96770567     0.42100
H3671       H  0.26863272  0.81111042  0.98999013     0.45500
H3672       H  0.25325446  0.72926902  0.03349890     0.37000
C3673       C  0.52308894  0.80671854  0.98949329    -0.27200
C3674       C  0.51304853  0.82480810  0.99457220     0.02400
C3675       C  0.52524065  0.84173248  0.99941239     0.30500
C3676       C  0.54664640  0.84038265  0.99910824    -0.19000
C3677       C  0.55672292  0.82222507  0.99409833    -0.28400
C3678       C  0.54442791  0.80532607  0.98917407     0.44500
C3679       C  0.49002855  0.82573795  0.99471078     0.05700
O3680       O  0.51641563  0.85983360  0.00431764    -0.56900
H3681       H  0.55539480  0.85367749  0.00296040     0.18600
O3682       O  0.55302582  0.78716592  0.98406807    -0.63600
H3683       H  0.51430458  0.79337054  0.98591641     0.17100
C3684       C  0.47847767  0.81928033  0.97795300     0.29300
C3685       C  0.45707782  0.81969190  0.97849609    -0.24500
C3686       C  0.44630067  0.82612981  0.99574597    -0.23800
C3687       C  0.45788208  0.83287976  0.01244378     0.40800
C3688       C  0.47932435  0.83267418  0.01180578    -0.26300
O3689       O  0.48799298  0.81309639  0.96060880    -0.58200
H3690       H  0.44887545  0.81456118  0.96532068     0.16400
O3691       O  0.44846878  0.83968802  0.02959630    -0.59600
H3692       H  0.48763932  0.83767392  0.02496098     0.14900
H3693       H  0.55446981  0.78754482  0.96917640     0.46700
H3694       H  0.48634676  0.79819555  0.96025671     0.42100
H3695       H  0.44721538  0.85451300  0.02777699     0.45500
H3696       H  0.51424941  0.86679204  0.99126118     0.37000
C3697       C  0.62067139  0.85891630  0.58708250    -0.27200
C3698       C  0.60647838  0.84338978  0.58482855     0.02400
C3699       C  0.60753757  0.83047730  0.56807626     0.30500
C3700       C  0.62203371  0.83393555  0.55309574    -0.19000
C3701       C  0.63559913  0.85027976  0.55461981    -0.28400
C3702       C  0.63527044  0.86236596  0.57221710     0.44500
C3703       C  0.58933244  0.84238836  0.59888285     0.05700
O3704       O  0.59381029  0.81511385  0.56573078    -0.56900
H3705       H  0.62206660  0.82429054  0.53987780     0.18600
O3706       O  0.64866251  0.87799067  0.57479692    -0.63600
H3707       H  0.61995119  0.86884318  0.60008562     0.17100
C3708       C  0.59083312  0.83209970  0.61731010     0.29300
C3709       C  0.57503956  0.83337007  0.63131719    -0.24500
C3710       C  0.55785190  0.84522076  0.62727485    -0.23800
C3711       C  0.55607703  0.85474475  0.60833297     0.40800
C3712       C  0.57180120  0.85329561  0.59432539    -0.26300
O3713       O  0.60781934  0.82115734  0.62189345    -0.58200
H3714       H  0.57670809  0.82587853  0.64574582     0.16400
O3715       O  0.53930960  0.86593145  0.60353555    -0.59600
H3716       H  0.57058901  0.86120905  0.58006864     0.14900
H3717       H  0.66058047  0.87186326  0.58149242     0.46700
H3718       H  0.61690957  0.83079063  0.62891036     0.42100
H3719       H  0.52960741  0.85611664  0.59768030     0.45500
H3720       H  0.59982033  0.80337958  0.57281479     0.37000
C3721       C  0.42271475  0.84313625  0.61595721    -0.27200
C3722       C  0.42839962  0.84885246  0.59635880     0.02400
C3723       C  0.44835724  0.85542387  0.59279493     0.30500
C3724       C  0.46204940  0.85677867  0.60876771    -0.19000
C3725       C  0.45631056  0.85130457  0.62843140    -0.28400
C3726       C  0.43648360  0.84425403  0.63191573     0.44500
C3727       C  0.41299365  0.84946758  0.58016262     0.05700
O3728       O  0.45457273  0.86078413  0.57378204    -0.56900
H3729       H  0.47725598  0.86209279  0.60573162     0.18600
O3730       O  0.43015637  0.83909161  0.65094652    -0.63600
H3731       H  0.40732237  0.83846889  0.61907003     0.17100
C3732       C  0.40041543  0.83277388  0.57605522     0.29300
C3733       C  0.38501312  0.83441469  0.56164627    -0.24500
C3734       C  0.38193265  0.85257721  0.55113124    -0.23800
C3735       C  0.39485409  0.86914929  0.55504082     0.40800
C3736       C  0.41013660  0.86748136  0.56942974    -0.26300
O3737       O  0.40344594  0.81466285  0.58565510    -0.58200
H3738       H  0.37544834  0.82143848  0.55873193     0.16400
O3739       O  0.39238806  0.88728826  0.54532859    -0.59600
H3740       H  0.41943896  0.88058326  0.57264080     0.14900
H3741       H  0.42503461  0.85182825  0.65699196     0.46700
H3742       H  0.39195056  0.81322606  0.59518395     0.42100
H3743       H  0.38324237  0.89527444  0.55412193     0.45500
H3744       H  0.45884780  0.84796242  0.56728890     0.37000
C3745       C  0.48922482  0.76823035  0.74477082    -0.27200
C3746       C  0.50481439  0.75380796  0.74424434     0.02400
C3747       C  0.52012323  0.75594627  0.72950342     0.30500
C3748       C  0.52010916  0.77267993  0.71630104    -0.19000
C3749       C  0.50482559  0.78744413  0.71726847    -0.28400
C3750       C  0.48915745  0.78486815  0.73159357     0.44500
C3751       C  0.50522589  0.73728802  0.75978814     0.05700
O3752       O  0.53478267  0.74140180  0.72748583    -0.56900
H3753       H  0.53216467  0.77414003  0.70531020     0.18600
O3754       O  0.47407239  0.79897542  0.73347351    -0.63600
H3755       H  0.47733969  0.76697676  0.75597540     0.17100
C3756       C  0.52197869  0.73471013  0.77270144     0.29300
C3757       C  0.52131600  0.72047411  0.78844529    -0.24500
C3758       C  0.50390593  0.70874257  0.79212402    -0.23800
C3759       C  0.48735975  0.71090764  0.77881019     0.40800
C3760       C  0.48808639  0.72507158  0.76296544    -0.26300
O3761       O  0.53873951  0.74677757  0.77078747    -0.58200
H3762       H  0.53418773  0.71939460  0.79846874     0.16400
O3763       O  0.47015772  0.69961341  0.78137011    -0.59600
H3764       H  0.47502146  0.72675852  0.75327781     0.14900
H3765       H  0.47934998  0.80914846  0.74313470     0.46700
H3766       H  0.53547761  0.75928873  0.77838309     0.42100
H3767       H  0.47283909  0.68672280  0.77419540     0.45500
H3768       H  0.54768055  0.74811732  0.73112030     0.37000
C3769       C  0.56439765  0.15772261  0.60118956    -0.27200
C3770       C  0.58398471  0.14983453  0.60258856     0.02400
C3771       C  0.59020282  0.14041091  0.62057643     0.30500
C3772       C  0.57659690  0.13838517  0.63664074    -0.19000
C3773       C  0.55680678  0.14590082  0.63509960    -0.28400
C3774       C  0.55083743  0.15584944  0.61726258     0.44500
C3775       C  0.59746194  0.15056175  0.58483506     0.05700
O3776       O  0.60936626  0.13270701  0.62240142    -0.56900
H3777       H  0.58145273  0.13074537  0.65024782     0.18600
O3778       O  0.53154786  0.16312192  0.61506056    -0.63600
H3779       H  0.55949757  0.16503285  0.58741784     0.17100
C3780       C  0.59218224  0.14054029  0.56686085     0.29300
C3781       C  0.60565122  0.14027418  0.55057457    -0.24500
C3782       C  0.62450597  0.14997299  0.55188897    -0.23800
C3783       C  0.62942246  0.16062505  0.56975907     0.40800
C3784       C  0.61598552  0.16070386  0.58606207    -0.26300
O3785       O  0.57414145  0.13042188  0.56530312    -0.58200
H3786       H  0.60150541  0.13204570  0.53705837     0.16400
O3787       O  0.64779866  0.16998709  0.57198431    -0.59600
H3788       H  0.62016147  0.16848058  0.59983954     0.14900
H3789       H  0.52364590  0.15167782  0.60945123     0.46700
H3790       H  0.57678556  0.11676155  0.57084837     0.42100
H3791       H  0.64530845  0.18439129  0.56868398     0.45500
H3792       H  0.60858458  0.11881478  0.61679726     0.37000
C3793       C  0.43200611  0.16329035  0.60886863    -0.27200
C3794       C  0.42494447  0.14595286  0.59894735     0.02400
C3795       C  0.43476018  0.12738287  0.60192796     0.30500
C3796       C  0.45065634  0.12606548  0.61566480    -0.19000
C3797       C  0.45693102  0.14307828  0.62676141    -0.28400
C3798       C  0.44794575  0.16199277  0.62269474     0.44500
C3799       C  0.40707327  0.14712760  0.58577012     0.05700
O3800       O  0.42901783  0.11052992  0.59125416    -0.56900
H3801       H  0.45766821  0.11146362  0.61805129     0.18600
O3802       O  0.45370566  0.17903936  0.63297207    -0.63600
H3803       H  0.42467361  0.17771944  0.60640079     0.17100
C3804       C  0.38948162  0.13608300  0.59037771     0.29300
C3805       C  0.37337093  0.13579542  0.57676054    -0.24500
C3806       C  0.37454143  0.14645146  0.55849334    -0.23800
C3807       C  0.39189336  0.15817838  0.55431890     0.40800
C3808       C  0.40794972  0.15853831  0.56801429    -0.26300
O3809       O  0.38787511  0.12581315  0.60830604    -0.58200
H3810       H  0.36008043  0.12689253  0.58033557     0.16400
O3811       O  0.39376683  0.16854140  0.53649637    -0.59600
H3812       H  0.42145832  0.16708444  0.56438933     0.14900
H3813       H  0.46433677  0.18533440  0.62447617     0.46700
H3814       H  0.38732474  0.11128224  0.60464235     0.42100
H3815       H  0.40004199  0.15883569  0.52693875     0.45500
H3816       H  0.42320502  0.10109536  0.60134220     0.37000
C3817       C  0.49239873  0.27484862  0.75906383    -0.27200
C3818       C  0.50005210  0.25502380  0.76080999     0.02400
C3819       C  0.50892239  0.24935292  0.77921014     0.30500
C3820       C  0.50971692  0.26292981  0.79548238    -0.19000
C3821       C  0.50150145  0.28259138  0.79428140    -0.28400
C3822       C  0.49302937  0.28855372  0.77558319     0.44500
C3823       C  0.49736066  0.23935687  0.74453554     0.05700
O3824       O  0.51675936  0.23029972  0.78152760    -0.56900
H3825       H  0.51650837  0.25770990  0.80938942     0.18600
O3826       O  0.48485916  0.30746066  0.77337762    -0.63600
H3827       H  0.48535561  0.27951391  0.74508644     0.17100
C3828       C  0.48258203  0.22419185  0.74686672     0.29300
C3829       C  0.48262735  0.20700330  0.73437881    -0.24500
C3830       C  0.49704167  0.20447212  0.71891177    -0.23800
C3831       C  0.51099658  0.22033546  0.71556653     0.40800
C3832       C  0.51123112  0.23747120  0.72845661    -0.26300
O3833       O  0.46869938  0.22543559  0.76220902    -0.58200
H3834       H  0.47162445  0.19520265  0.73725091     0.16400
O3835       O  0.52554660  0.21849289  0.70092683    -0.59600
H3836       H  0.52287896  0.24881891  0.72648379     0.14900
H3837       H  0.47032392  0.30587189  0.77671511     0.46700
H3838       H  0.45735806  0.23344750  0.75661502     0.42100
H3839       H  0.51995420  0.22556089  0.68899477     0.45500
H3840       H  0.50575660  0.22224969  0.78778118     0.37000
C3841       C  0.49978778  0.97308887  0.69378269    -0.27200
C3842       C  0.50771817  0.98344250  0.67697748     0.02400
C3843       C  0.51585050  0.97166074  0.66108184     0.30500
C3844       C  0.51587023  0.95027691  0.66213887    -0.19000
C3845       C  0.50804516  0.93992455  0.67904111    -0.28400
C3846       C  0.49988495  0.95177443  0.69491471     0.44500
C3847       C  0.50735626  0.00638177  0.67631960     0.05700
O3848       O  0.52372381  0.98087085  0.64429484    -0.56900
H3849       H  0.52227128  0.94176628  0.64970610     0.18600
O3850       O  0.49180627  0.94272916  0.71170438    -0.63600
H3851       H  0.49360443  0.98160931  0.70631569     0.17100
C3852       C  0.48928100  0.01732955  0.67950775     0.29300
C3853       C  0.48928718  0.03870709  0.67961105    -0.24500
C3854       C  0.50721017  0.04999783  0.67691847    -0.23800
C3855       C  0.52525651  0.03900994  0.67331994     0.40800
C3856       C  0.52520671  0.01758892  0.67303514    -0.26300
O3857       O  0.47130618  0.00724320  0.68190953    -0.58200
H3858       H  0.47509533  0.04647763  0.68214516     0.16400
O3859       O  0.54312628  0.04899130  0.67002209    -0.59600
H3860       H  0.53933364  0.00968520  0.67054962     0.14900
H3861       H  0.47737558  0.94037067  0.70838569     0.46700
H3862       H  0.46796791  0.00844981  0.69645477     0.42100
H3863       H  0.54392725  0.05080194  0.65519049     0.45500
H3864       H  0.51215832  0.98238178  0.63492512     0.37000
C3865       C  0.38928164  0.06816475  0.73164935    -0.27200
C3866       C  0.38377329  0.08728504  0.73895019     0.02400
C3867       C  0.36969704  0.08891208  0.75466102     0.30500
C3868       C  0.36331646  0.07144019  0.76463033    -0.19000
C3869       C  0.37132306  0.05239576  0.75930869    -0.28400
C3870       C  0.38334535  0.05073154  0.74182259     0.44500
C3871       C  0.39730398  0.10407134  0.73390312     0.05700
O3872       O  0.36319082  0.10753386  0.76110815    -0.56900
H3873       H  0.35340047  0.07308084  0.77755369     0.18600
O3874       O  0.39039621  0.03236146  0.73523827    -0.63600
H3875       H  0.40005092  0.06681892  0.71936654     0.17100
C3876       C  0.41263555  0.10910161  0.74778649     0.29300
C3877       C  0.43093301  0.11694326  0.74080444    -0.24500
C3878       C  0.43406525  0.11959400  0.72008248    -0.23800
C3879       C  0.41755436  0.11760796  0.70671049     0.40800
C3880       C  0.39932226  0.10967256  0.71368010    -0.26300
O3881       O  0.41088922  0.10393120  0.76776562    -0.58200
H3882       H  0.44327020  0.11891527  0.75135884     0.16400
O3883       O  0.41961570  0.12160655  0.68650483    -0.59600
H3884       H  0.38756735  0.10590009  0.70294274     0.14900
H3885       H  0.40449586  0.03150553  0.74018587     0.46700
H3886       H  0.41654649  0.09008818  0.76879163     0.42100
H3887       H  0.41802574  0.13646050  0.68528634     0.45500
H3888       H  0.37045985  0.11013990  0.77392215     0.37000
C3889       C  0.39366638  0.91544733  0.74442852    -0.27200
C3890       C  0.39963437  0.90035540  0.75801589     0.02400
C3891       C  0.39231167  0.90049648  0.77786682     0.30500
C3892       C  0.38070075  0.91674702  0.78451837    -0.19000
C3893       C  0.37682940  0.93311675  0.77161363    -0.28400
C3894       C  0.38245656  0.93197753  0.75119318     0.44500
C3895       C  0.41657595  0.88732322  0.75236544     0.05700
O3896       O  0.39803144  0.88584830  0.79131730    -0.56900
H3897       H  0.37646558  0.91745210  0.80030807     0.18600
O3898       O  0.37787940  0.94734053  0.73807063    -0.63600
H3899       H  0.39924657  0.91534988  0.72904266     0.17100
C3900       C  0.41490199  0.87392473  0.73612354     0.29300
C3901       C  0.43232556  0.86561787  0.72771857    -0.24500
C3902       C  0.45159952  0.87115426  0.73491812    -0.23800
C3903       C  0.45304506  0.88311648  0.75246110     0.40800
C3904       C  0.43552007  0.89113493  0.76104889    -0.26300
O3905       O  0.39638729  0.86965078  0.72783144    -0.58200
H3906       H  0.43068379  0.85604292  0.71455331     0.16400
O3907       O  0.47144401  0.88827259  0.76047270    -0.59600
H3908       H  0.43684730  0.90155386  0.77361313     0.14900
H3909       H  0.39061160  0.95509050  0.73636593     0.46700
H3910       H  0.39547240  0.87822600  0.71560130     0.42100
H3911       H  0.47413793  0.87792944  0.77094327     0.45500
H3912       H  0.38857971  0.87444636  0.78896549     0.37000
C3913       C  0.37247464  0.07232106  0.89182164    -0.27200
C3914       C  0.35347188  0.08069931  0.89600709     0.02400
C3915       C  0.33668426  0.07496702  0.88433808     0.30500
C3916       C  0.33898524  0.06057846  0.86902685    -0.19000
C3917       C  0.35792112  0.05165677  0.86524782    -0.28400
C3918       C  0.37481256  0.05793209  0.87662031     0.44500
C3919       C  0.35154926  0.09525611  0.91275920     0.05700
O3920       O  0.31794496  0.08306377  0.88800697    -0.56900
H3921       H  0.32582648  0.05607873  0.86040498     0.18600
O3922       O  0.39371732  0.05019483  0.87300675    -0.63600
H3923       H  0.38560516  0.07700325  0.90039727     0.17100
C3924       C  0.35788655  0.08993481  0.93228935     0.29300
C3925       C  0.35797334  0.10441595  0.94761791    -0.24500
C3926       C  0.35177341  0.12430537  0.94377102    -0.23800
C3927       C  0.34477296  0.12947022  0.92434173     0.40800
C3928       C  0.34464292  0.11492491  0.90900913    -0.26300
O3929       O  0.36380484  0.07051760  0.93652790    -0.58200
H3930       H  0.36320661  0.10014236  0.96249758     0.16400
O3931       O  0.33893434  0.14886336  0.91991292    -0.59600
H3932       H  0.33990634  0.11921519  0.89396936     0.14900
H3933       H  0.39961594  0.05897496  0.86240259     0.46700
H3934       H  0.37874660  0.07106988  0.93767814     0.42100
H3935       H  0.35146830  0.15585642  0.91553356     0.45500
H3936       H  0.31200542  0.07454924  0.89880894     0.37000
C3937       C  0.33329374  0.89848488  0.92959813    -0.27200
C3938       C  0.35109791  0.90720630  0.92184294     0.02400
C3939       C  0.36990227  0.89977487  0.92844402     0.30500
C3940       C  0.37073008  0.88370935  0.94201238    -0.19000
C3941       C  0.35302768  0.87433138  0.94918708    -0.28400
C3942       C  0.33413366  0.88209560  0.94306460     0.44500
C3943       C  0.35027083  0.92308110  0.90595222     0.05700
O3944       O  0.38768873  0.90764136  0.92120070    -0.56900
H3945       H  0.38548696  0.87830522  0.94658211     0.18600
O3946       O  0.31643547  0.87358801  0.94973725    -0.63600
H3947       H  0.31867819  0.90416332  0.92493257     0.17100
C3948       C  0.33934593  0.91995921  0.88798726     0.29300
C3949       C  0.34122986  0.93363174  0.87195463    -0.24500
C3950       C  0.35402340  0.95056007  0.87337421    -0.23800
C3951       C  0.36420336  0.95417084  0.89175917     0.40800
C3952       C  0.36214799  0.94059572  0.90782567    -0.26300
O3953       O  0.32801189  0.90279045  0.88534612    -0.58200
H3954       H  0.33325116  0.93045497  0.85804862     0.16400
O3955       O  0.37666910  0.97058564  0.89408587    -0.59600
H3956       H  0.37039149  0.94346104  0.92164921     0.14900
H3957       H  0.31269544  0.86355500  0.93925470     0.46700
H3958       H  0.31375475  0.90720142  0.88682332     0.42100
H3959       H  0.36781096  0.98154282  0.89921482     0.45500
H3960       H  0.39052026  0.90004111  0.90860727     0.37000
C3961       C  0.26663625  0.98070860  0.75974350    -0.27200
C3962       C  0.26026798  0.99954369  0.75228980     0.02400
C3963       C  0.26921921  0.01716045  0.76021160     0.30500
C3964       C  0.28466578  0.01579252  0.77469459    -0.19000
C3965       C  0.29198252  0.99693666  0.78141249    -0.28400
C3966       C  0.28241478  0.97927638  0.77398358     0.44500
C3967       C  0.24566438  0.00067940  0.73505433     0.05700
O3968       O  0.26293300  0.03585813  0.75383732    -0.56900
H3969       H  0.29147217  0.02968606  0.78006133     0.18600
O3970       O  0.28860165  0.96048982  0.78013175    -0.63600
H3971       H  0.25995029  0.96697515  0.75383283     0.17100
C3972       C  0.25201924  0.00813853  0.71620169     0.29300
C3973       C  0.23854648  0.00889746  0.69990912    -0.24500
C3974       C  0.21838172  0.00205437  0.70163401    -0.23800
C3975       C  0.21195389  0.99469907  0.72064133     0.40800
C3976       C  0.22554690  0.99400780  0.73707964    -0.26300
O3977       O  0.27160532  0.01438743  0.71337373    -0.58200
H3978       H  0.24420228  0.01456830  0.68565067     0.16400
O3979       O  0.19247321  0.98817740  0.72341244    -0.59600
H3980       H  0.22035303  0.98823196  0.75147113     0.14900
H3981       H  0.29817179  0.95581661  0.76957139     0.46700
H3982       H  0.27923906  0.00196403  0.70987987     0.42100
H3983       H  0.19292254  0.97337498  0.72110034     0.45500
H3984       H  0.27398912  0.04103701  0.74513012     0.37000
C3985       C  0.61510657  0.09222439  0.75905890    -0.27200
C3986       C  0.60530838  0.10484527  0.77306972     0.02400
C3987       C  0.60768944  0.10114827  0.79376570     0.30500
C3988       C  0.61640855  0.08305140  0.80002209    -0.19000
C3989       C  0.62299145  0.06868124  0.78575068    -0.28400
C3990       C  0.62410652  0.07425605  0.76529754     0.44500
C3991       C  0.58799970  0.11676453  0.76582956     0.05700
O3992       O  0.59908313  0.11375198  0.80780108    -0.56900
H3993       H  0.61634232  0.07958902  0.81599473     0.18600
O3994       O  0.63177501  0.06135861  0.75099870    -0.63600
H3995       H  0.61360344  0.09486681  0.74301416     0.17100
C3996       C  0.58980638  0.12887148  0.74853166     0.29300
C3997       C  0.57265661  0.13289646  0.73698028    -0.24500
C3998       C  0.55376227  0.12506016  0.74266486    -0.23800
C3999       C  0.55151336  0.11539128  0.76133210     0.40800
C4000       C  0.56865167  0.11120359  0.77278570    -0.26300
O4001       O  0.60842193  0.13562788  0.74223998    -0.58200
H4002       H  0.57433494  0.14099785  0.72286819     0.16400
O4003       O  0.53318312  0.10763232  0.76717785    -0.59600
H4004       H  0.56697101  0.10162833  0.78593676     0.14900
H4005       H  0.64635367  0.06476046  0.75008675     0.46700
H4006       H  0.61113112  0.12873279  0.72921458     0.42100
H4007       H  0.52733524  0.11792824  0.77636822     0.45500
H4008       H  0.61023798  0.12263946  0.81240323     0.37000
C4009       C  0.63415959  0.91324238  0.74938858    -0.27200
C4010       C  0.61999024  0.91485626  0.73385086     0.02400
C4011       C  0.61374373  0.93411052  0.72723714     0.30500
C4012       C  0.61922441  0.95125272  0.73827690    -0.19000
C4013       C  0.63085111  0.94916404  0.75575489    -0.28400
C4014       C  0.63973049  0.93035213  0.76031086     0.44500
C4015       C  0.60698722  0.89742054  0.72958983     0.05700
O4016       O  0.59973396  0.93597958  0.71212569    -0.56900
H4017       H  0.61249026  0.96569917  0.73453912     0.18600
O4018       O  0.65208298  0.92818526  0.77676858    -0.63600
H4019       H  0.63910139  0.89848734  0.75447679     0.17100
C4020       C  0.60493227  0.88965525  0.71001236     0.29300
C4021       C  0.58822054  0.87760798  0.70538890    -0.24500
C4022       C  0.57335589  0.87371561  0.72009247    -0.23800
C4023       C  0.57649327  0.87987541  0.74008852     0.40800
C4024       C  0.59338911  0.89151790  0.74478050    -0.26300
O4025       O  0.61805439  0.89528747  0.69499145    -0.58200
H4026       H  0.58591753  0.87294089  0.68988038     0.16400
O4027       O  0.56237093  0.87597382  0.75475460    -0.59600
H4028       H  0.59487548  0.89751399  0.75993412     0.14900
H4029       H  0.66575993  0.93199883  0.77193061     0.46700
H4030       H  0.62901188  0.88508162  0.69531969     0.42100
H4031       H  0.56518555  0.86196268  0.75924551     0.45500
H4032       H  0.60776987  0.93814986  0.69966624     0.37000
C4033       C  0.66800121  0.92826844  0.89172564    -0.27200
C4034       C  0.65108132  0.91694761  0.89757601     0.02400
C4035       C  0.63287102  0.91897299  0.88690166     0.30500
C4036       C  0.63163149  0.93238121  0.87074067    -0.19000
C4037       C  0.64842946  0.94403352  0.86485361    -0.28400
C4038       C  0.66681046  0.94177918  0.87551195     0.44500
C4039       C  0.65225865  0.90298019  0.91483594     0.05700
O4040       O  0.61612826  0.90793917  0.89224751    -0.56900
H4041       H  0.61730761  0.93378255  0.86296997     0.18600
O4042       O  0.68359929  0.95288422  0.87051333    -0.63600
H4043       H  0.68208589  0.92680430  0.89991808     0.17100
C4044       C  0.66444382  0.88562042  0.91400082     0.29300
C4045       C  0.66310937  0.87113815  0.92930939    -0.24500
C4046       C  0.64972217  0.87376743  0.94564618    -0.23800
C4047       C  0.63842075  0.89184573  0.94695355     0.40800
C4048       C  0.63977316  0.90624056  0.93160461    -0.26300
O4049       O  0.67660059  0.88201133  0.89760175    -0.58200
H4050       H  0.67198326  0.85744698  0.92790925     0.16400
O4051       O  0.62593427  0.89561106  0.96307668    -0.59600
H4052       H  0.63057137  0.91976693  0.93248995     0.14900
H4053       H  0.69121859  0.94434131  0.86083048     0.46700
H4054       H  0.69018087  0.88693582  0.90159458     0.42100
H4055       H  0.61212143  0.89227282  0.95829442     0.45500
H4056       H  0.61716412  0.89518979  0.88442262     0.37000
C4057       C  0.63813835  0.05628203  0.90612914    -0.27200
C4058       C  0.65319815  0.07109488  0.90470018     0.02400
C4059       C  0.66783634  0.06981615  0.88934310     0.30500
C4060       C  0.66661116  0.05434030  0.87495742    -0.19000
C4061       C  0.65061174  0.04036690  0.87553661    -0.28400
C4062       C  0.63665713  0.04108208  0.89161452     0.44500
C4063       C  0.65201322  0.08884086  0.91806179     0.05700
O4064       O  0.68265064  0.08423521  0.88762382    -0.56900
H4065       H  0.67736314  0.05409589  0.86260488     0.18600
O4066       O  0.62136374  0.02712413  0.89310720    -0.63600
H4067       H  0.62694625  0.05704782  0.91807383     0.17100
C4068       C  0.63506995  0.10158964  0.91711786     0.29300
C4069       C  0.63321373  0.11765145  0.93057175    -0.24500
C4070       C  0.64811910  0.12139032  0.94522852    -0.23800
C4071       C  0.66536919  0.10879995  0.94584658     0.40800
C4072       C  0.66726593  0.09272985  0.93217637    -0.26300
O4073       O  0.62005903  0.09826190  0.90323549    -0.58200
H4074       H  0.61987013  0.12708783  0.92957427     0.16400
O4075       O  0.68025723  0.11175429  0.95991381    -0.59600
H4076       H  0.68036862  0.08294003  0.93296144     0.14900
H4077       H  0.60901888  0.03421986  0.88844082     0.46700
H4078       H  0.62441293  0.10565129  0.89096457     0.42100
H4079       H  0.67627339  0.10329879  0.97161566     0.45500
H4080       H  0.67665387  0.09505637  0.87918496     0.37000
C4081       C  0.77593170  0.00364711  0.73706546    -0.27200
C4082       C  0.75517953  0.99940568  0.73495962     0.02400
C4083       C  0.74797289  0.99354418  0.71587584     0.30500
C4084       C  0.76104855  0.99264213  0.69924931    -0.19000
C4085       C  0.78174420  0.99759537  0.70088160    -0.28400
C4086       C  0.78915157  0.00289850  0.72023162     0.44500
C4087       C  0.74044820  0.00242372  0.75189908     0.05700
O4088       O  0.72787793  0.98916571  0.71315848    -0.56900
H4089       H  0.75467645  0.98839737  0.68481288     0.18600
O4090       O  0.80914049  0.00767306  0.72288102    -0.63600
H4091       H  0.78177596  0.00820001  0.75163434     0.17100
C4092       C  0.73925707  0.98915433  0.76853386     0.29300
C4093       C  0.72265634  0.99017831  0.78198827    -0.24500
C4094       C  0.70707312  0.00437633  0.77906854    -0.23800
C4095       C  0.70923245  0.01858030  0.76327647     0.40800
C4096       C  0.72564030  0.01745677  0.74992410    -0.26300
O4097       O  0.75335271  0.97416375  0.77086520    -0.58200
H4098       H  0.72137376  0.97909085  0.79393685     0.16400
O4099       O  0.69484243  0.03317128  0.76014799    -0.59600
H4100       H  0.72635784  0.02790967  0.73736323     0.14900
H4101       H  0.80983744  0.02258923  0.72154475     0.46700
H4102       H  0.76336714  0.97972389  0.78050459     0.42100
H4103       H  0.69844426  0.04433330  0.76947834     0.45500
H4104       H  0.72634278  0.97486748  0.71737850     0.37000
C4105       C  0.47896135  0.98783569  0.80007952    -0.27200
C4106       C  0.48921917  0.99424802  0.81756487     0.02400
C4107       C  0.47736074  0.00103523  0.83402475     0.30500
C4108       C  0.45603556  0.00135814  0.83282429    -0.19000
C4109       C  0.44573837  0.99507450  0.81528953    -0.28400
C4110       C  0.45763172  0.98817246  0.79884934     0.44500
C4111       C  0.51213263  0.99408634  0.81842362     0.05700
O4112       O  0.48643546  0.00727431  0.85154407    -0.56900
H4113       H  0.44751417  0.00670674  0.84573792     0.18600
O4114       O  0.44862957  0.98159022  0.78141875    -0.63600
H4115       H  0.48754935  0.98270625  0.78712068     0.17100
C4116       C  0.52359291  0.97682814  0.81306124     0.29300
C4117       C  0.54495994  0.97717229  0.81384803    -0.24500
C4118       C  0.55567071  0.99457449  0.82000142    -0.23800
C4119       C  0.54411503  0.01183643  0.82537136     0.40800
C4120       C  0.52279203  0.01143523  0.82460716    -0.26300
O4121       O  0.51407821  0.95936648  0.80720355    -0.58200
H4122       H  0.55316780  0.96365872  0.80958589     0.16400
O4123       O  0.55341847  0.02930143  0.83155573    -0.59600
H4124       H  0.51453070  0.02499496  0.82861807     0.14900
H4125       H  0.44636681  0.96690630  0.78343893     0.46700
H4126       H  0.51091854  0.95213837  0.81992524     0.42100
H4127       H  0.55460779  0.03771939  0.81923840     0.45500
H4128       H  0.48891662  0.99472555  0.85931970     0.37000
C4129       C  0.83109203  0.58491105  0.61133901    -0.27200
C4130       C  0.84701888  0.58848581  0.59784746     0.02400
C4131       C  0.86366246  0.57524451  0.59759807     0.30500
C4132       C  0.86448655  0.55903089  0.61106018    -0.19000
C4133       C  0.84884331  0.55562267  0.62505560    -0.28400
C4134       C  0.83190940  0.56872921  0.62494487     0.44500
C4135       C  0.84663598  0.60633120  0.58440522     0.05700
O4136       O  0.87936155  0.57816966  0.58435920    -0.56900
H4137       H  0.87765215  0.54930339  0.61070892     0.18600
O4138       O  0.81607750  0.56598955  0.63805757    -0.63600
H4139       H  0.81820376  0.59501055  0.61168495     0.17100
C4140       C  0.83138336  0.60889697  0.56987964     0.29300
C4141       C  0.83272036  0.62473257  0.55589809    -0.24500
C4142       C  0.84911193  0.63831062  0.55625045    -0.23800
C4143       C  0.86375910  0.63629013  0.57166998     0.40800
C4144       C  0.86237566  0.62044721  0.58552947    -0.26300
O4145       O  0.81584223  0.59524637  0.56839821    -0.58200
H4146       H  0.82124813  0.62589818  0.54431818     0.16400
O4147       O  0.87961437  0.64957561  0.57332668    -0.59600
H4148       H  0.87396488  0.61888073  0.59696213     0.14900
H4149       H  0.81891405  0.57512171  0.64959325     0.46700
H4150       H  0.80419009  0.60179173  0.57520472     0.42100
H4151       H  0.89130918  0.64261003  0.56700731     0.45500
H4152       H  0.87498324  0.57166161  0.57160687     0.37000
C4153       C  0.85641735  0.44260802  0.58444620    -0.27200
C4154       C  0.84738921  0.42364963  0.58740667     0.02400
C4155       C  0.83809107  0.41935868  0.60604617     0.30500
C4156       C  0.83839677  0.43378308  0.62154454    -0.19000
C4157       C  0.84810541  0.45250087  0.61885015    -0.28400
C4158       C  0.85681429  0.45697537  0.59990870     0.44500
C4159       C  0.84966268  0.40791511  0.57164723     0.05700
O4160       O  0.83020426  0.40054184  0.60981107    -0.56900
H4161       H  0.83185799  0.42988279  0.63602744     0.18600
O4162       O  0.86625197  0.47511998  0.59646021    -0.63600
H4163       H  0.86363349  0.44610875  0.57017585     0.17100
C4164       C  0.83294069  0.39758680  0.56349460     0.29300
C4165       C  0.83594083  0.38205515  0.54939295    -0.24500
C4166       C  0.85554091  0.37673062  0.54301747    -0.23800
C4167       C  0.87217606  0.38785422  0.55059375     0.40800
C4168       C  0.86912417  0.40310910  0.56481761    -0.26300
O4169       O  0.81363343  0.40247267  0.56926984    -0.58200
H4170       H  0.82289490  0.37393892  0.54374262     0.16400
O4171       O  0.89161932  0.38367890  0.54467666    -0.59600
H4172       H  0.88214289  0.41101126  0.57085406     0.14900
H4173       H  0.85562472  0.48404892  0.59083970     0.46700
H4174       H  0.80960802  0.41375540  0.56031006     0.42100
H4175       H  0.89404307  0.39235784  0.53272584     0.45500
H4176       H  0.81535851  0.40250977  0.61063420     0.37000
C4177       C  0.76559501  0.51789992  0.73813687    -0.27200
C4178       C  0.75609385  0.49980025  0.74388336     0.02400
C4179       C  0.76113247  0.48199603  0.73326366     0.30500
C4180       C  0.77604984  0.48232165  0.71796639    -0.19000
C4181       C  0.78630058  0.50031327  0.71278324    -0.28400
C4182       C  0.78044350  0.51831419  0.72289776     0.44500
C4183       C  0.74267382  0.49941811  0.76224291     0.05700
O4184       O  0.75218888  0.46398329  0.73829364    -0.56900
H4185       H  0.78008909  0.46824825  0.71063650     0.18600
O4186       O  0.78957691  0.53642505  0.71856999    -0.63600
H4187       H  0.76191281  0.53180135  0.74598385     0.17100
C4188       C  0.75049583  0.50503325  0.78118296     0.29300
C4189       C  0.73838239  0.50398730  0.79854753    -0.24500
C4190       C  0.71800803  0.49771571  0.79775469    -0.23800
C4191       C  0.70989104  0.49270740  0.77868882     0.40800
C4192       C  0.72225507  0.49330428  0.76120691    -0.26300
O4193       O  0.77037772  0.51066224  0.78306045    -0.58200
H4194       H  0.74515211  0.50808872  0.81285387     0.16400
O4195       O  0.69022884  0.48638026  0.77703948    -0.59600
H4196       H  0.71587147  0.48900127  0.74679246     0.14900
H4197       H  0.80055785  0.53784602  0.72865482     0.46700
H4198       H  0.77017063  0.52560839  0.78425074     0.42100
H4199       H  0.68239880  0.49876726  0.77394190     0.45500
H4200       H  0.76065709  0.45833543  0.74924444     0.37000
C4201       C  0.16223326  0.56256453  0.59993073    -0.27200
C4202       C  0.14498053  0.57225038  0.59237182     0.02400
C4203       C  0.12572875  0.56625512  0.59920768     0.30500
C4204       C  0.12390247  0.55080191  0.61341455    -0.19000
C4205       C  0.14112910  0.54135814  0.62134617    -0.28400
C4206       C  0.16041513  0.54717081  0.61431940     0.44500
C4207       C  0.14693330  0.58880521  0.57755270     0.05700
O4208       O  0.10861268  0.57576918  0.59243580    -0.56900
H4209       H  0.10896559  0.54667643  0.61876136     0.18600
O4210       O  0.17753980  0.53786222  0.62132209    -0.63600
H4211       H  0.17711112  0.56692539  0.59462182     0.17100
C4212       C  0.15687843  0.60693648  0.58253244     0.29300
C4213       C  0.15612609  0.62339070  0.56926663    -0.24500
C4214       C  0.14555465  0.62198814  0.55092728    -0.23800
C4215       C  0.13674050  0.60331687  0.54546999     0.40800
C4216       C  0.13738312  0.58699568  0.55879526    -0.26300
O4217       O  0.16603366  0.60920080  0.60094751    -0.58200
H4218       H  0.16300294  0.63754834  0.57380427     0.16400
O4219       O  0.12694077  0.60096748  0.52739964    -0.59600
H4220       H  0.12993858  0.57298467  0.55469537     0.14900
H4221       H  0.17936493  0.52584428  0.61254452     0.46700
H4222       H  0.18060901  0.60673102  0.59840906     0.42100
H4223       H  0.13768507  0.59739030  0.51756643     0.45500
H4224       H  0.10688825  0.58766146  0.60140218     0.37000
C4225       C  0.12762604  0.41913680  0.59410423    -0.27200
C4226       C  0.14689778  0.41167186  0.58933147     0.02400
C4227       C  0.16375117  0.41874985  0.60024119     0.30500
C4228       C  0.16102699  0.43282268  0.61590328    -0.19000
C4229       C  0.14165698  0.44017154  0.62073113    -0.28400
C4230       C  0.12490718  0.43321511  0.60954788     0.44500
C4231       C  0.14872917  0.39651962  0.57289474     0.05700
O4232       O  0.18294241  0.41278712  0.59502735    -0.56900
H4233       H  0.17413843  0.43819859  0.62408991     0.18600
O4234       O  0.10568891  0.43980886  0.61373861    -0.63600
H4235       H  0.11447692  0.41378319  0.58595214     0.17100
C4236       C  0.15787353  0.37754538  0.57607145     0.29300
C4237       C  0.15710124  0.36270281  0.56099602    -0.24500
C4238       C  0.14680256  0.36623281  0.54280227    -0.23800
C4239       C  0.13817167  0.38546593  0.53945162     0.40800
C4240       C  0.13923833  0.40034584  0.55437759    -0.26300
O4241       O  0.16670465  0.37294396  0.59419172    -0.58200
H4242       H  0.16381652  0.34807198  0.56395595     0.16400
O4243       O  0.12825046  0.38982492  0.52182980    -0.59600
H4244       H  0.13215823  0.41485888  0.55165223     0.14900
H4245       H  0.10044789  0.43037141  0.62412624     0.46700
H4246       H  0.15550539  0.36807524  0.60289496     0.42100
H4247       H  0.13865457  0.39588063  0.51289291     0.45500
H4248       H  0.18813583  0.40513589  0.60679427     0.37000
C4249       C  0.22613171  0.47441899  0.73511763    -0.27200
C4250       C  0.23452908  0.49289491  0.74144996     0.02400
C4251       C  0.22749043  0.51078106  0.73225872     0.30500
C4252       C  0.21184256  0.51004451  0.71778476    -0.19000
C4253       C  0.20273400  0.49157991  0.71207400    -0.28400
C4254       C  0.21046008  0.47362426  0.72078367     0.44500
C4255       C  0.24904221  0.49328598  0.75894422     0.05700
O4256       O  0.23521841  0.52917917  0.73788737    -0.56900
H4257       H  0.20638456  0.52412514  0.71150460     0.18600
O4258       O  0.20248502  0.45512403  0.71588023    -0.63600
H4259       H  0.23138089  0.46043838  0.74179944     0.17100
C4260       C  0.24325180  0.48499807  0.77764044     0.29300
C4261       C  0.25650411  0.48540522  0.79413302    -0.24500
C4262       C  0.27604995  0.49387968  0.79274654    -0.23800
C4263       C  0.28203272  0.50200482  0.77391945     0.40800
C4264       C  0.26853955  0.50182964  0.75731894    -0.26300
O4265       O  0.22415999  0.47728658  0.78026354    -0.58200
H4266       H  0.25119902  0.47908219  0.80825284     0.16400
O4267       O  0.30070462  0.51072608  0.77168051    -0.59600
H4268       H  0.27336612  0.50829810  0.74309849     0.14900
H4269       H  0.19229282  0.45227188  0.72650569     0.46700
H4270       H  0.22585812  0.46239080  0.78028911     0.42100
H4271       H  0.30963619  0.49967818  0.76689915     0.45500
H4272       H  0.22670308  0.53366417  0.74937840     0.37000
C4273       C  0.97157274  0.48710349  0.68973720    -0.27200
C4274       C  0.98275487  0.49492125  0.67336997     0.02400
C4275       C  0.97162659  0.50352511  0.65726863     0.30500
C4276       C  0.95019282  0.50425889  0.65779023    -0.19000
C4277       C  0.93905348  0.49681034  0.67438387    -0.28400
C4278       C  0.95021257  0.48799093  0.69036548     0.44500
C4279       C  0.00581512  0.49411541  0.67339121     0.05700
O4280       O  0.98153466  0.51172338  0.64103607    -0.56900
H4281       H  0.94227447  0.51113067  0.64526451     0.18600
O4282       O  0.94042400  0.47992238  0.70674345    -0.63600
H4283       H  0.97943412  0.47997509  0.70214886     0.17100
C4284       C  0.01721408  0.50034200  0.69035436     0.29300
C4285       C  0.03858329  0.49920848  0.69028205    -0.24500
C4286       C  0.04951414  0.49197147  0.67345314    -0.23800
C4287       C  0.03814562  0.48585810  0.65640346     0.40800
C4288       C  0.01671018  0.48685727  0.65652235    -0.26300
O4289       O  0.00765209  0.50848949  0.70684932    -0.58200
H4290       H  0.04666607  0.50433585  0.70353475     0.16400
O4291       O  0.04773122  0.47815333  0.63973074    -0.59600
H4292       H  0.00854828  0.48162392  0.64336526     0.14900
H4293       H  0.93796459  0.46556152  0.70317837     0.46700
H4294       H  0.00887254  0.49818073  0.71763485     0.42100
H4295       H  0.04894833  0.48967992  0.63025611     0.45500
H4296       H  0.98479281  0.52578364  0.64510408     0.37000
C4297       C  0.07035955  0.37927856  0.73786247    -0.27200
C4298       C  0.08872960  0.38070511  0.74834965     0.02400
C4299       C  0.09008079  0.37329529  0.76811581     0.30500
C4300       C  0.07250839  0.36766285  0.77823152    -0.19000
C4301       C  0.05362803  0.36917622  0.76866220    -0.28400
C4302       C  0.05275941  0.37344983  0.74791306     0.44500
C4303       C  0.10344017  0.39565428  0.74120259     0.05700
O4304       O  0.10801827  0.37406285  0.77843299    -0.56900
H4305       H  0.07347126  0.36365117  0.79405132     0.18600
O4306       O  0.03459174  0.37470776  0.73805718    -0.63600
H4307       H  0.06913029  0.38507853  0.72263110     0.17100
C4308       C  0.11192264  0.39431405  0.72185446     0.29300
C4309       C  0.12049657  0.41149855  0.71309512    -0.24500
C4310       C  0.11998632  0.43018732  0.72325501    -0.23800
C4311       C  0.11296616  0.43104683  0.74325472     0.40800
C4312       C  0.10500271  0.41374004  0.75218694    -0.26300
O4313       O  0.11099213  0.37657417  0.71113881    -0.58200
H4314       H  0.12607013  0.41052036  0.69774171     0.16400
O4315       O  0.11321086  0.44883447  0.75392985    -0.59600
H4316       H  0.09835854  0.41495560  0.76710343     0.14900
H4317       H  0.03263006  0.36124399  0.73178156     0.46700
H4318       H  0.10011722  0.37856824  0.70105328     0.42100
H4319       H  0.09911532  0.45394260  0.75350322     0.45500
H4320       H  0.11494909  0.36118650  0.77514657     0.37000
C4321       C  0.91756754  0.38836229  0.74109975    -0.27200
C4322       C  0.89942557  0.39118054  0.75171075     0.02400
C4323       C  0.89749676  0.38381797  0.77144861     0.30500
C4324       C  0.91448912  0.37616473  0.78127473    -0.19000
C4325       C  0.93338196  0.37585136  0.77152831    -0.28400
C4326       C  0.93454566  0.38061859  0.75084985     0.44500
C4327       C  0.88511122  0.40617232  0.74392392     0.05700
O4328       O  0.87935132  0.38516505  0.78147460    -0.56900
H4329       H  0.91313585  0.37168698  0.79694119     0.18600
O4330       O  0.95259792  0.37997846  0.74065485    -0.63600
H4331       H  0.91913202  0.39399389  0.72582312     0.17100
C4332       C  0.88395192  0.42516842  0.75343836     0.29300
C4333       C  0.87526112  0.44139894  0.74334515    -0.24500
C4334       C  0.86769972  0.43901306  0.72376415    -0.23800
C4335       C  0.86718848  0.41954488  0.71498948     0.40800
C4336       C  0.87611760  0.40329336  0.72504262    -0.26300
O4337       O  0.89355592  0.42861024  0.77146049    -0.58200
H4338       H  0.87565152  0.45619014  0.75038524     0.16400
O4339       O  0.85997958  0.41661433  0.69582038    -0.59600
H4340       H  0.87721437  0.38876325  0.71755226     0.14900
H4341       H  0.95293793  0.36645038  0.73417254     0.46700
H4342       H  0.88258484  0.43073757  0.78145468     0.42100
H4343       H  0.84567711  0.41247144  0.69761855     0.45500
H4344       H  0.88159428  0.39473634  0.79277845     0.37000
C4345       C  0.92918201  0.36776798  0.90372191    -0.27200
C4346       C  0.92018624  0.34927307  0.90872139     0.02400
C4347       C  0.92611443  0.33163486  0.89832289     0.30500
C4348       C  0.94025680  0.33284625  0.88256956    -0.19000
C4349       C  0.94856296  0.35156666  0.87699013    -0.28400
C4350       C  0.94335712  0.36899786  0.88819351     0.44500
C4351       C  0.90375422  0.34900649  0.92390402     0.05700
O4352       O  0.91781666  0.31325388  0.90312741    -0.56900
H4353       H  0.94415671  0.31928403  0.87425764     0.18600
O4354       O  0.95170504  0.38748144  0.88382133    -0.63600
H4355       H  0.92473152  0.38149406  0.91147613     0.17100
C4356       C  0.90652839  0.35758611  0.94314169     0.29300
C4357       C  0.89026802  0.35878275  0.95659376    -0.24500
C4358       C  0.87101867  0.35165531  0.95114050    -0.23800
C4359       C  0.86828253  0.34298625  0.93188678     0.40800
C4360       C  0.88460923  0.34164581  0.91849522    -0.26300
O4361       O  0.92520873  0.36439640  0.94906444    -0.58200
H4362       H  0.89277670  0.36532521  0.97137512     0.16400
O4363       O  0.84964012  0.33630891  0.92575266    -0.59600
H4364       H  0.88215002  0.33543433  0.90356593     0.14900
H4365       H  0.96455460  0.38792841  0.89151448     0.46700
H4366       H  0.92413981  0.37935477  0.94932767     0.42100
H4367       H  0.84312256  0.34820699  0.91940164     0.45500
H4368       H  0.92596948  0.30817609  0.91458734     0.37000
C4369       C  0.07058342  0.36503172  0.89622116    -0.27200
C4370       C  0.07909375  0.34600856  0.89995771     0.02400
C4371       C  0.07220697  0.32916208  0.88890699     0.30500
C4372       C  0.05688175  0.33158745  0.87443163    -0.19000
C4373       C  0.04854296  0.35075792  0.87055868    -0.28400
C4374       C  0.05555944  0.36753274  0.88171055     0.44500
C4375       C  0.09462050  0.34441235  0.91598789     0.05700
O4376       O  0.07972118  0.31023019  0.89276035    -0.56900
H4377       H  0.05170585  0.31849765  0.86606647     0.18600
O4378       O  0.04728574  0.38637279  0.87914018    -0.63600
H4379       H  0.07565328  0.37812884  0.90465879     0.17100
C4380       C  0.11436983  0.33750478  0.91192746     0.29300
C4381       C  0.12938244  0.33908182  0.92678609    -0.24500
C4382       C  0.12511123  0.34802249  0.94558504    -0.23800
C4383       C  0.10516151  0.35425662  0.94979499     0.40800
C4384       C  0.09014318  0.35225154  0.93514950    -0.26300
O4385       O  0.11941313  0.33012568  0.89324244    -0.58200
H4386       H  0.14461206  0.33418248  0.92324480     0.16400
O4387       O  0.10009756  0.36214526  0.96827899    -0.59600
H4388       H  0.07498598  0.35747703  0.93856043     0.14900
H4389       H  0.05711336  0.39387325  0.87065484     0.46700
H4390       H  0.12325268  0.34215751  0.88518243     0.42100
H4391       H  0.09962383  0.37699866  0.96627449     0.45500
H4392       H  0.08781590  0.30657901  0.88068458     0.37000
C4393       C  0.01689276  0.24582878  0.72658338    -0.27200
C4394       C  0.00244624  0.24141375  0.74143902     0.02400
C4395       C  0.99111283  0.22341805  0.73959984     0.30500
C4396       C  0.99375847  0.21062045  0.72270086    -0.19000
C4397       C  0.00752377  0.21561181  0.70723568    -0.28400
C4398       C  0.01949841  0.23321593  0.70971762     0.44500
C4399       C  0.99822167  0.25674057  0.75756207     0.05700
O4400       O  0.97683403  0.21861184  0.75382417    -0.56900
H4401       H  0.98430413  0.19732835  0.72121627     0.18600
O4402       O  0.03342034  0.23868809  0.69535651    -0.63600
H4403       H  0.02574573  0.25957420  0.72770580     0.17100
C4404       C  0.01134444  0.25959430  0.77409785     0.29300
C4405       C  0.00850759  0.27601147  0.78748023    -0.24500
C4406       C  0.99297443  0.29018116  0.78429291    -0.23800
C4407       C  0.97944344  0.28679166  0.76812562     0.40800
C4408       C  0.98205490  0.27021984  0.75508326    -0.26300
O4409       O  0.02731894  0.24672796  0.77698310    -0.58200
H4410       H  0.01927767  0.27840219  0.79954182     0.16400
O4411       O  0.96409921  0.30019300  0.76433610    -0.59600
H4412       H  0.97192204  0.26842169  0.74237773     0.14900
H4413       H  0.04587260  0.23112776  0.69884041     0.46700
H4414       H  0.03875121  0.25287341  0.76946681     0.42100
H4415       H  0.95251634  0.29538220  0.77263949     0.45500
H4416       H  0.98443541  0.21196845  0.76485834     0.37000
C4417       C  0.08962087  0.61050810  0.76405422    -0.27200
C4418       C  0.08587698  0.60224051  0.74499588     0.02400
C4419       C  0.06688641  0.60503787  0.73584071     0.30500
C4420       C  0.05109859  0.61354593  0.74696486    -0.19000
C4421       C  0.05416239  0.61916983  0.76711730    -0.28400
C4422       C  0.07391919  0.61908359  0.77512009     0.44500
C4423       C  0.09946793  0.58642571  0.73746724     0.05700
O4424       O  0.06286160  0.59697559  0.71719986    -0.56900
H4425       H  0.03608447  0.61388907  0.74045903     0.18600
O4426       O  0.07772122  0.62572381  0.79435979    -0.63600
H4427       H  0.10428831  0.60862231  0.77107275     0.17100
C4428       C  0.10763209  0.58710164  0.71794356     0.29300
C4429       C  0.11668744  0.56984679  0.70988340    -0.24500
C4430       C  0.11751580  0.55183035  0.72112448    -0.23800
C4431       C  0.11075225  0.55172090  0.74123051     0.40800
C4432       C  0.10180640  0.56898198  0.74927238    -0.26300
O4433       O  0.10573534  0.60408993  0.70626294    -0.58200
H4434       H  0.12190953  0.57022153  0.69438195     0.16400
O4435       O  0.11189183  0.53458465  0.75280511    -0.59600
H4436       H  0.09553639  0.56834113  0.76438148     0.14900
H4437       H  0.07905685  0.64060669  0.79319992     0.46700
H4438       H  0.11770050  0.61249511  0.70956276     0.42100
H4439       H  0.12558217  0.53491023  0.75887576     0.45500
H4440       H  0.06314548  0.60861947  0.70779488     0.37000
C4441       C  0.88086026  0.57355800  0.75668827    -0.27200
C4442       C  0.88424195  0.59175276  0.74632888     0.02400
C4443       C  0.87698896  0.59408021  0.72657806     0.30500
C4444       C  0.86863219  0.57752987  0.71661192    -0.19000
C4445       C  0.86766380  0.55861152  0.72616858    -0.28400
C4446       C  0.87271521  0.55692837  0.74665658     0.44500
C4447       C  0.89971118  0.60550195  0.75426066     0.05700
O4448       O  0.87993399  0.61181123  0.71627437    -0.56900
H4449       H  0.86451356  0.57910054  0.70087263     0.18600
O4450       O  0.87046571  0.53893861  0.75671323    -0.63600
H4451       H  0.88639085  0.57156588  0.77193046     0.17100
C4452       C  0.89855697  0.61285740  0.77407878     0.29300
C4453       C  0.91596777  0.62026316  0.78336813    -0.24500
C4454       C  0.93460667  0.62012439  0.77311306    -0.23800
C4455       C  0.93525853  0.61459680  0.75263012     0.40800
C4456       C  0.91784141  0.60729458  0.74336533    -0.26300
O4457       O  0.88071014  0.61198687  0.78465800    -0.58200
H4458       H  0.91511669  0.62499389  0.79900672     0.16400
O4459       O  0.95318872  0.61404302  0.74221407    -0.59600
H4460       H  0.91898217  0.60130867  0.72817570     0.14900
H4461       H  0.88420612  0.53296568  0.75728045     0.46700
H4462       H  0.88258682  0.60119264  0.79486199     0.42100
H4463       H  0.95394078  0.62716755  0.73503851     0.45500
H4464       H  0.86777102  0.62006517  0.71918595     0.37000
C4465       C  0.09155740  0.63083170  0.93190701    -0.27200
C4466       C  0.09233875  0.64766877  0.91912944     0.02400
C4467       C  0.10688103  0.66274181  0.92245613     0.30500
C4468       C  0.12090454  0.66052552  0.93806388    -0.19000
C4469       C  0.12072930  0.64326806  0.95051244    -0.28400
C4470       C  0.10547586  0.62857906  0.94757985     0.44500
C4471       C  0.07882169  0.64844009  0.90150900     0.05700
O4472       O  0.10793681  0.67933149  0.91010489    -0.56900
H4473       H  0.13230437  0.67212447  0.94001434     0.18600
O4474       O  0.10456984  0.61146638  0.95921131    -0.63600
H4475       H  0.08034604  0.61913992  0.92940730     0.17100
C4476       C  0.08105446  0.63420594  0.88595928     0.29300
C4477       C  0.06721061  0.63373856  0.87014560    -0.24500
C4478       C  0.05074807  0.64719388  0.86961401    -0.23800
C4479       C  0.04903453  0.66207298  0.88480745     0.40800
C4480       C  0.06313004  0.66266059  0.90059569    -0.26300
O4481       O  0.09683351  0.62073881  0.88608465    -0.58200
H4482       H  0.06917695  0.62243460  0.85846135     0.16400
O4483       O  0.03335709  0.67562828  0.88478815    -0.59600
H4484       H  0.06140613  0.67375103  0.91251575     0.14900
H4485       H  0.09495833  0.61474711  0.97024511     0.46700
H4486       H  0.09107006  0.60795585  0.89139838     0.42100
H4487       H  0.02252865  0.66916370  0.89290195     0.45500
H4488       H  0.11732154  0.67542126  0.89908262     0.37000
C4489       C  0.91212981  0.63930466  0.94275606    -0.27200
C4490       C  0.90859384  0.65178568  0.92606807     0.02400
C4491       C  0.89015828  0.66212492  0.92445106     0.30500
C4492       C  0.87501424  0.65900706  0.93881503    -0.19000
C4493       C  0.87790974  0.64548816  0.95495094    -0.28400
C4494       C  0.89700328  0.63620572  0.95725619     0.44500
C4495       C  0.92237348  0.65087955  0.90864006     0.05700
O4496       O  0.88629380  0.67420420  0.90810178    -0.56900
H4497       H  0.86061826  0.66651265  0.93671909     0.18600
O4498       O  0.90083063  0.62348714  0.97311741    -0.63600
H4499       H  0.92629563  0.63118126  0.94400324     0.17100
C4500       C  0.93964123  0.66318001  0.90706715     0.29300
C4501       C  0.95233837  0.66144006  0.89013409    -0.24500
C4502       C  0.94805135  0.64727341  0.87486376    -0.23800
C4503       C  0.93036639  0.63535576  0.87645676     0.40800
C4504       C  0.91780983  0.63720230  0.89324081    -0.26300
O4505       O  0.94410191  0.67697312  0.92186058    -0.58200
H4506       H  0.96576730  0.67077921  0.88919377     0.16400
O4507       O  0.92515814  0.62176010  0.86170371    -0.59600
H4508       H  0.90440609  0.62781491  0.89430247     0.14900
H4509       H  0.90558739  0.63240278  0.98417534     0.46700
H4510       H  0.95230044  0.66944122  0.93184893     0.42100
H4511       H  0.91688778  0.62955513  0.85196716     0.45500
H4512       H  0.89238246  0.68748135  0.91149210     0.37000
C4513       C  0.01027957  0.72231232  0.75158690    -0.27200
C4514       C  0.99661455  0.73809980  0.75527792     0.02400
C4515       C  0.98440870  0.73712770  0.77277231     0.30500
C4516       C  0.98559392  0.72033266  0.78589421    -0.19000
C4517       C  0.99861084  0.70406924  0.78161589    -0.28400
C4518       C  0.01125374  0.70545276  0.76441495     0.44500
C4519       C  0.99399832  0.75433008  0.73971723     0.05700
O4520       O  0.97073063  0.75217027  0.77677296    -0.56900
H4521       H  0.97557011  0.71954952  0.79881231     0.18600
O4522       O  0.02417582  0.68996942  0.75954498    -0.63600
H4523       H  0.01968040  0.72265674  0.73818337     0.17100
C4524       C  0.00921691  0.76877162  0.73573012     0.29300
C4525       C  0.00714001  0.78254163  0.71956853    -0.24500
C4526       C  0.99027379  0.78174375  0.70664473    -0.23800
C4527       C  0.97492086  0.76746621  0.71097468     0.40800
C4528       C  0.97678135  0.75414111  0.72738563    -0.26300
O4529       O  0.02628983  0.76939314  0.74741890    -0.58200
H4530       H  0.01927380  0.79310828  0.71648343     0.16400
O4531       O  0.95822576  0.76593207  0.69882846    -0.59600
H4532       H  0.96503159  0.74302279  0.73001525     0.14900
H4533       H  0.03651919  0.69246578  0.76764501     0.46700
H4534       H  0.03633329  0.76092002  0.74019341     0.42100
H4535       H  0.94842166  0.77583612  0.70436316     0.45500
H4536       H  0.97825304  0.76222430  0.78494471     0.37000
C4537       C  0.01282252  0.52055484  0.83509308    -0.27200
C4538       C  0.99579911  0.50968085  0.82826380     0.02400
C4539       C  0.97889943  0.52097572  0.82163597     0.30500
C4540       C  0.97927748  0.54229788  0.82179793    -0.19000
C4541       C  0.99649983  0.55313486  0.82809367    -0.28400
C4542       C  0.01332920  0.54188797  0.83492510     0.44500
C4543       C  0.99586386  0.48675236  0.82790452     0.05700
O4544       O  0.96201028  0.51136857  0.81443168    -0.56900
H4545       H  0.96613175  0.55038859  0.81637767     0.18600
O4546       O  0.03042604  0.55153467  0.84157319    -0.63600
H4547       H  0.02585823  0.51248717  0.84076551     0.17100
C4548       C  0.01239823  0.47566676  0.82005087     0.29300
C4549       C  0.01197383  0.45432105  0.81952101    -0.24500
C4550       C  0.99518607  0.44326783  0.82661326    -0.23800
C4551       C  0.97871200  0.45435204  0.83463946     0.40800
C4552       C  0.97919093  0.47568785  0.83528641    -0.26300
O4553       O  0.02866719  0.48556770  0.81181892    -0.58200
H4554       H  0.02479198  0.44639908  0.81309572     0.16400
O4555       O  0.96198818  0.44454601  0.84200499    -0.59600
H4556       H  0.96642151  0.48361530  0.84179187     0.14900
H4557       H  0.02793923  0.55431807  0.85607287     0.46700
H4558       H  0.03995750  0.48338652  0.82140330     0.42100
H4559       H  0.96481397  0.44235441  0.85652762     0.45500
H4560       H  0.96464918  0.50926335  0.79984691     0.37000
loop_ 
_geom_bond_atom_site_label_1 
_geom_bond_atom_site_label_2 
_geom_bond_distance 
_geom_bond_site_symmetry_2 
_ccdc_geom_bond_type 
Zn1           O5   1.926   1_455  S
Zn1           O6   2.064       .  S
Zn1          O10   1.977       .  S
Zn1          O17   1.973       .  S
Zn2           O5   1.925       .  S
Zn2           O7   1.981       .  S
Zn2           O9   2.057       .  S
Zn2          O13   1.972       .  S
Zn3           O5   1.979       .  S
Zn3           O8   2.050   1_655  S
Zn3          O11   2.055       .  S
Zn3          O14   2.112       .  S
Zn4           O5   1.943       .  S
Zn4          O12   1.994       .  S
Zn4          O15   2.007       .  S
Zn4          O16   2.004   1_655  S
O6           C18   1.276   1_455  A
O7           C19   1.273       .  A
O8           C20   1.279       .  A
O9           C18   1.276       .  A
O10          C20   1.273       .  A
O11          C19   1.280       .  A
O12          C21   1.270       .  A
O13          C22   1.270       .  A
O14          C21   1.284       .  A
O15          C22   1.274       .  A
O16          C23   1.273       .  A
O17          C23   1.270       .  A
C18        C4541   1.508       .  S
C19        C4502   1.481       .  S
C20        C4478   1.481       .  S
C21        C4517   1.497       .  S
C22        C4454   1.467       .  S
C23        C4421   1.467       .  S
Zn24         O28   1.941       .  S
Zn24         O29   2.002   1_655  S
Zn24         O33   1.999       .  S
Zn24         O40   1.996       .  S
Zn25         O28   1.926   1_455  S
Zn25         O30   2.067       .  S
Zn25         O32   1.973       .  S
Zn25         O36   1.991       .  S
Zn26         O28   1.926       .  S
Zn26         O31   1.990       .  S
Zn26         O34   2.068       .  S
Zn26         O37   1.977       .  S
Zn27         O28   1.978       .  S
Zn27         O35   2.059       .  S
Zn27         O38   2.048   1_655  S
Zn27         O39   2.113       .  S
O29          C41   1.273       .  A
O30          C42   1.277   1_455  A
O31          C43   1.273       .  A
O32          C41   1.271       .  A
O33          C43   1.273       .  A
O34          C42   1.277       .  A
O35          C44   1.281       .  A
O36          C45   1.274       .  A
O37          C44   1.273       .  A
O38          C45   1.279       .  A
O39          C46   1.283       .  A
O40          C46   1.269       .  A
C41        C4301   1.465       .  S
C42        C4550   1.512       .  S
C43        C4325   1.470       .  S
C44        C4349   1.479       .  S
C45        C4373   1.483       .  S
C46        C4406   1.498       .  S
Zn47         O51   1.944       .  S
Zn47         O52   2.022       .  S
Zn47         O56   2.101       .  S
Zn47         O63   2.018       .  S
Zn48         O51   1.936       .  S
Zn48         O53   1.969       .  S
Zn48         O55   2.012       .  S
Zn48         O59   2.060       .  S
Zn49         O51   1.936       .  S
Zn49         O54   2.072       .  S
Zn49         O57   2.014       .  S
Zn49         O60   2.019       .  S
Zn50         O51   1.939       .  S
Zn50         O58   1.973       .  S
Zn50         O61   2.059       .  S
Zn50         O62   2.024       .  S
O52          C64   1.278       .  A
O53          C65   1.270       .  A
O54          C66   1.278       .  A
O55          C64   1.277       .  A
O56          C66   1.281       .  A
O57          C65   1.277       .  A
O58          C67   1.271       .  A
O59          C68   1.276       .  A
O60          C67   1.278       .  A
O61          C68   1.276       .  A
O62          C69   1.278       .  A
O63          C69   1.278       .  A
C64        C4205   1.475       .  S
C65        C4430   1.466       .  S
C66        C4286   1.521       .  S
C67        C4310   1.467       .  S
C68        C4253   1.512       .  S
C69        C4229   1.482       .  S
Zn70         O74   1.950       .  S
Zn70         O75   2.024       .  S
Zn70         O79   2.079       .  S
Zn70         O86   1.983       .  S
Zn71         O74   1.948       .  S
Zn71         O76   2.036       .  S
Zn71         O78   2.018       .  S
Zn71         O82   2.106       .  S
Zn72         O74   1.935       .  S
Zn72         O77   2.034       .  S
Zn72         O80   2.005       .  S
Zn72         O83   1.959       .  S
Zn73         O74   1.934       .  S
Zn73         O81   2.016       .  S
Zn73         O84   2.072       .  S
Zn73         O85   2.003       .  S
O75          C87   1.280       .  A
O76          C88   1.280       .  A
O77          C89   1.273       .  A
O78          C87   1.278       .  A
O79          C89   1.278       .  A
O80          C88   1.275       .  A
O81          C90   1.277       .  A
O82          C91   1.282       .  A
O83          C90   1.268       .  A
O84          C91   1.278       .  A
O85          C92   1.276       .  A
O86          C92   1.270       .  A
C87        C4157   1.482       .  S
C88        C4133   1.488       .  S
C89        C4181   1.512       .  S
C90        C4445   1.462       .  S
C91        C4277   1.522       .  S
C92        C4334   1.470       .  S
Zn93         O97   1.926   1_545  S
Zn93         O98   2.015       .  S
Zn93        O102   2.025   1_545  S
Zn93        O109   2.000       .  S
Zn94         O97   1.905   1_545  S
Zn94         O99   2.054       .  S
Zn94        O101   1.966       .  S
Zn94        O105   1.985       .  S
Zn95         O97   1.908       .  S
Zn95        O100   1.979       .  S
Zn95        O103   2.084       .  S
Zn95        O106   2.007       .  S
Zn96         O97   1.955       .  S
Zn96        O104   2.022       .  S
Zn96        O107   2.036   1_565  S
Zn96        O108   2.091       .  S
O98         C110   1.277       .  A
O99         C111   1.276   1_545  A
O100        C112   1.274       .  A
O101        C110   1.270       .  A
O102        C112   1.277       .  A
O103        C111   1.279       .  A
O104        C113   1.277       .  A
O105        C114   1.274       .  A
O106        C113   1.277       .  A
O107        C114   1.278       .  A
O108        C115   1.280   1_565  A
O109        C115   1.271       .  A
C110       C3989   1.474       .  S
C111       C4118   1.517       .  S
C112       C4013   1.464       .  S
C113       C4037   1.484       .  S
C114       C4061   1.472       .  S
C115       C4094   1.497       .  S
Zn116       O120   1.945       .  S
Zn116       O121   2.079       .  S
Zn116       O125   2.025       .  S
Zn116       O132   2.010   1_565  S
Zn117       O120   1.942       .  S
Zn117       O122   2.008       .  S
Zn117       O124   2.073       .  S
Zn117       O128   2.020   1_565  S
Zn118       O120   1.943       .  S
Zn118       O123   2.027       .  S
Zn118       O126   1.974       .  S
Zn118       O129   2.064       .  S
Zn119       O120   1.937   1_545  S
Zn119       O127   2.025       .  S
Zn119       O130   1.967       .  S
Zn119       O131   2.002       .  S
O121        C133   1.280       .  A
O122        C134   1.276       .  A
O123        C135   1.279       .  A
O124        C133   1.279       .  A
O125        C135   1.277       .  A
O126        C134   1.271       .  A
O127        C136   1.273   1_545  A
O128        C137   1.276       .  A
O129        C136   1.276       .  A
O130        C137   1.269       .  A
O131        C138   1.275       .  A
O132        C138   1.276       .  A
C133       C4109   1.515       .  S
C134       C3893   1.461       .  S
C135       C3950   1.488       .  S
C136       C3965   1.506       .  S
C137       C3869   1.476       .  S
C138       C3917   1.476       .  S
Zn139       O143   1.949       .  S
Zn139       O144   2.011       .  S
Zn139       O148   2.016       .  S
Zn139       O155   2.022       .  S
Zn140       O143   1.939       .  S
Zn140       O145   2.100       .  S
Zn140       O147   1.982       .  S
Zn140       O151   2.016       .  S
Zn141       O143   1.923       .  S
Zn141       O146   1.970       .  S
Zn141       O149   2.065       .  S
Zn141       O152   1.982       .  S
Zn142       O143   1.967       .  S
Zn142       O150   2.037       .  S
Zn142       O153   2.014       .  S
Zn142       O154   2.109       .  S
O144        C156   1.276       .  A
O145        C157   1.280       .  A
O146        C158   1.270       .  A
O147        C156   1.274       .  A
O148        C158   1.275       .  A
O149        C157   1.277       .  A
O150        C159   1.279       .  A
O151        C160   1.277       .  A
O152        C159   1.274       .  A
O153        C160   1.276       .  A
O154        C161   1.281       .  A
O155        C161   1.272       .  A
C156       C3998   1.460       .  S
C157       C3854   1.519       .  S
C158       C3878   1.470       .  S
C159       C3797   1.480       .  S
C160       C3773   1.475       .  S
C161       C3830   1.506       .  S
Zn162       O166   1.941       .  S
Zn162       O167   2.021       .  S
Zn162       O171   2.025       .  S
Zn162       O178   2.062       .  S
Zn163       O166   1.938       .  S
Zn163       O168   2.053       .  S
Zn163       O170   1.973       .  S
Zn163       O174   2.001       .  S
Zn164       O166   1.925       .  S
Zn164       O169   1.958       .  S
Zn164       O172   2.041       .  S
Zn164       O175   2.015       .  S
Zn165       O166   1.945       .  S
Zn165       O173   2.015       .  S
Zn165       O176   2.019       .  S
Zn165       O177   2.090       .  S
O167        C179   1.278       .  A
O168        C180   1.276       .  A
O169        C181   1.270       .  A
O170        C179   1.269       .  A
O171        C181   1.277       .  A
O172        C180   1.275       .  A
O173        C182   1.277       .  A
O174        C183   1.275       .  A
O175        C182   1.276       .  A
O176        C183   1.278       .  A
O177        C184   1.281       .  A
O178        C184   1.277       .  A
C179       C4022   1.462       .  S
C180       C3749   1.498       .  S
C181       C3902   1.475       .  S
C182       C3725   1.478       .  S
C183       C3710   1.476       .  S
C184       C3845   1.515       .  S
Zn185       O189   1.937       .  S
Zn185       O190   2.000       .  S
Zn185       O194   2.005   1_556  S
Zn185       O201   1.995       .  S
Zn186       O189   1.986       .  S
Zn186       O191   2.056   1_556  S
Zn186       O193   2.138       .  S
Zn186       O197   2.064       .  S
Zn187       O189   1.931   1_554  S
Zn187       O192   1.980       .  S
Zn187       O195   1.991       .  S
Zn187       O198   2.093       .  S
Zn188       O189   1.923       .  S
Zn188       O196   2.080       .  S
Zn188       O199   1.988       .  S
Zn188       O200   1.980       .  S
O190        C202   1.270       .  A
O191        C203   1.281       .  A
O192        C204   1.271       .  A
O193        C202   1.286       .  A
O194        C204   1.274       .  A
O195        C203   1.275       .  A
O196        C205   1.278       .  A
O197        C206   1.282       .  A
O198        C205   1.279   1_554  A
O199        C206   1.276       .  A
O200        C207   1.272       .  A
O201        C207   1.273       .  A
C202       C3662   1.515       .  S
C203       C3629   1.488       .  S
C204       C3590   1.464       .  S
C205       C3686   1.523       .  S
C206       C3941   1.488       .  S
C207       C3605   1.468       .  S
Zn208       O212   1.933       .  S
Zn208       O213   2.071       .  S
Zn208       O217   2.011   1_556  S
Zn208       O224   2.013       .  S
Zn209       O212   1.944       .  S
Zn209       O214   2.024   1_556  S
Zn209       O216   2.104       .  S
Zn209       O220   2.018       .  S
Zn210       O212   1.937   1_554  S
Zn210       O215   1.966       .  S
Zn210       O218   2.004       .  S
Zn210       O221   2.045       .  S
Zn211       O212   1.935       .  S
Zn211       O219   2.047       .  S
Zn211       O222   2.008       .  S
Zn211       O223   1.962       .  S
O213        C225   1.278       .  A
O214        C226   1.279       .  A
O215        C227   1.270       .  A
O216        C225   1.282       .  A
O217        C227   1.276       .  A
O218        C226   1.275       .  A
O219        C228   1.274       .  A
O220        C229   1.278       .  A
O221        C228   1.274   1_554  A
O222        C229   1.277       .  A
O223        C230   1.269       .  A
O224        C230   1.277       .  A
C225       C3677   1.524       .  S
C226       C3533   1.485       .  S
C227       C3485   1.468       .  S
C228       C3557   1.499       .  S
C229       C4046   1.482       .  S
C230       C3518   1.461       .  S
Zn231       O235   1.936       .  S
Zn231       O236   1.967       .  S
Zn231       O240   2.011       .  S
Zn231       O247   2.041       .  S
Zn232       O235   1.941       .  S
Zn232       O237   2.078       .  S
Zn232       O239   2.021       .  S
Zn232       O243   2.020       .  S
Zn233       O235   1.941       .  S
Zn233       O238   2.016       .  S
Zn233       O241   2.092       .  S
Zn233       O244   2.005       .  S
Zn234       O235   1.942       .  S
Zn234       O242   2.021       .  S
Zn234       O245   1.978       .  S
Zn234       O246   2.050       .  S
O236        C248   1.270       .  A
O237        C249   1.279       .  A
O238        C250   1.277       .  A
O239        C248   1.278       .  A
O240        C250   1.276       .  A
O241        C249   1.281       .  A
O242        C251   1.277       .  A
O243        C252   1.278       .  A
O244        C251   1.276       .  A
O245        C252   1.271       .  A
O246        C253   1.275       .  A
O247        C253   1.274       .  A
C248       C3494   1.465       .  S
C249       C3461   1.521       .  S
C250       C3389   1.479       .  S
C251       C3413   1.485       .  S
C252       C3581   1.469       .  S
C253       C3437   1.504       .  S
Zn254       O258   1.949       .  S
Zn254       O259   2.031       .  S
Zn254       O263   2.104       .  S
Zn254       O270   2.016       .  S
Zn255       O258   1.937       .  S
Zn255       O260   1.963       .  S
Zn255       O262   1.992       .  S
Zn255       O266   2.047       .  S
Zn256       O258   1.940       .  S
Zn256       O261   2.072       .  S
Zn256       O264   2.021       .  S
Zn256       O267   2.021       .  S
Zn257       O258   1.935       .  S
Zn257       O265   1.956       .  S
Zn257       O268   2.044       .  S
Zn257       O269   2.010       .  S
O259        C271   1.280       .  A
O260        C272   1.268       .  A
O261        C273   1.279       .  A
O262        C271   1.274       .  A
O263        C273   1.283       .  A
O264        C272   1.278       .  A
O265        C274   1.269       .  A
O266        C275   1.274       .  A
O267        C274   1.278       .  A
O268        C275   1.274       .  A
O269        C276   1.276       .  A
O270        C276   1.276       .  A
C271       C3365   1.477       .  S
C272       C3614   1.466       .  S
C273       C3470   1.522       .  S
C274       C3509   1.469       .  S
C275       C3758   1.502       .  S
C276       C3341   1.485       .  S
Zn277       O281   1.935   1_556  S
Zn277       O282   2.048       .  S
Zn277       O286   1.975       .  S
Zn277       O293   1.995       .  S
Zn278       O281   1.934       .  S
Zn278       O283   1.954       .  S
Zn278       O285   2.029       .  S
Zn278       O289   2.005       .  S
Zn279       O281   1.938   1_556  S
Zn279       O284   2.009       .  S
Zn279       O287   2.017   1_556  S
Zn279       O290   2.053   1_556  S
Zn280       O281   1.956       .  S
Zn280       O288   2.116       .  S
Zn280       O291   2.034       .  S
Zn280       O292   2.041   1_554  S
O282        C294   1.274       .  A
O283        C295   1.269       .  A
O284        C296   1.275       .  A
O285        C294   1.272   1_554  A
O286        C296   1.270       .  A
O287        C295   1.276       .  A
O288        C297   1.285       .  A
O289        C298   1.275       .  A
O290        C297   1.277       .  A
O291        C298   1.279       .  A
O292        C299   1.280       .  A
O293        C299   1.276       .  A
C294       C3566   1.498       .  S
C295       C3254   1.467       .  S
C296       C3269   1.470       .  S
C297       C3326   1.516       .  S
C298       C3293   1.478       .  S
C299       C4493   1.484       .  S
Zn300       O304   1.941   1_556  S
Zn300       O305   1.966       .  S
Zn300       O309   2.048       .  S
Zn300       O316   2.016       .  S
Zn301       O304   1.947       .  S
Zn301       O306   2.015       .  S
Zn301       O308   2.020   1_554  S
Zn301       O312   2.072       .  S
Zn302       O304   1.943       .  S
Zn302       O307   2.051       .  S
Zn302       O310   1.963       .  S
Zn302       O313   2.009       .  S
Zn303       O304   1.951       .  S
Zn303       O311   2.027       .  S
Zn303       O314   2.092       .  S
Zn303       O315   2.009   1_554  S
O305        C317   1.270       .  A
O306        C318   1.277       .  A
O307        C319   1.275       .  A
O308        C317   1.277       .  A
O309        C319   1.275   1_556  A
O310        C318   1.268       .  A
O311        C320   1.278       .  A
O312        C321   1.278       .  A
O313        C320   1.276       .  A
O314        C321   1.281       .  A
O315        C322   1.276       .  A
O316        C322   1.276       .  A
C317       C3173   1.473       .  S
C318       C3149   1.465       .  S
C319       C3221   1.508       .  S
C320       C3197   1.481       .  S
C321       C3317   1.521       .  S
C322       C4358   1.478       .  S
Zn323       O327   1.942       .  S
Zn323       O328   2.077       .  S
Zn323       O332   1.999       .  S
Zn323       O339   2.003       .  S
Zn324       O327   1.945       .  S
Zn324       O329   2.004       .  S
Zn324       O331   2.083       .  S
Zn324       O335   2.018       .  S
Zn325       O327   1.947       .  S
Zn325       O330   1.985       .  S
Zn325       O333   2.018       .  S
Zn325       O336   2.055       .  S
Zn326       O327   1.944       .  S
Zn326       O334   2.051       .  S
Zn326       O337   2.022       .  S
Zn326       O338   1.965       .  S
O328        C340   1.278       .  A
O329        C341   1.277       .  A
O330        C342   1.272       .  A
O331        C340   1.279       .  A
O332        C342   1.275       .  A
O333        C341   1.277       .  A
O334        C343   1.275       .  A
O335        C344   1.277       .  A
O336        C343   1.276       .  A
O337        C344   1.277       .  A
O338        C345   1.270       .  A
O339        C345   1.275       .  A
C340       C3125   1.521       .  S
C341       C3077   1.482       .  S
C342       C3158   1.471       .  S
C343       C3101   1.509       .  S
C344       C3398   1.480       .  S
C345       C3245   1.462       .  S
Zn346       O350   1.965       .  S
Zn346       O351   2.114       .  S
Zn346       O355   2.026       .  S
Zn346       O362   2.050       .  S
Zn347       O350   1.938       .  S
Zn347       O352   2.010       .  S
Zn347       O354   1.992       .  S
Zn347       O358   2.009       .  S
Zn348       O350   1.915       .  S
Zn348       O353   2.007       .  S
Zn348       O356   1.971       .  S
Zn348       O359   2.089       .  S
Zn349       O350   1.919       .  S
Zn349       O357   2.073       .  S
Zn349       O360   1.964       .  S
Zn349       O361   1.996       .  S
O351        C363   1.283       .  A
O352        C364   1.275       .  A
O353        C365   1.278       .  A
O354        C363   1.270       .  A
O355        C365   1.278       .  A
O356        C364   1.271       .  A
O357        C366   1.278       .  A
O358        C367   1.275       .  A
O359        C366   1.280       .  A
O360        C367   1.271       .  A
O361        C368   1.275       .  A
O362        C368   1.280       .  A
C363       C4190   1.505       .  S
C364       C3278   1.465       .  S
C365       C3350   1.483       .  S
C366       C3134   1.516       .  S
C367       C3182   1.469       .  S
C368       C3053   1.484       .  S
Zn369       O373   1.968       .  S
Zn369       O374   2.028   1_655  S
Zn369       O378   2.104       .  S
Zn369       O385   2.044       .  S
Zn370       O373   1.925   1_455  S
Zn370       O375   1.974       .  S
Zn370       O377   2.000       .  S
Zn370       O381   2.075       .  S
Zn371       O373   1.951       .  S
Zn371       O376   2.016       .  S
Zn371       O379   2.014   1_655  S
Zn371       O382   2.010       .  S
Zn372       O373   1.931       .  S
Zn372       O380   1.975       .  S
Zn372       O383   2.069       .  S
Zn372       O384   1.990       .  S
O374        C386   1.276       .  A
O375        C387   1.272       .  A
O376        C388   1.272       .  A
O377        C386   1.275       .  A
O378        C388   1.283       .  A
O379        C387   1.274       .  A
O380        C389   1.270       .  A
O381        C390   1.278   1_455  A
O382        C389   1.275       .  A
O383        C390   1.277       .  A
O384        C391   1.274       .  A
O385        C391   1.279       .  A
C386       C3005   1.480       .  S
C387       C2933   1.461       .  S
C388       C4526   1.502       .  S
C389       C2957   1.472       .  S
C390       C3029   1.518       .  S
C391       C2981   1.466       .  S
Zn392       O396   1.927   1_655  S
Zn392       O397   2.087       .  S
Zn392       O401   1.990       .  S
Zn392       O408   2.036       .  S
Zn393       O396   1.927       .  S
Zn393       O398   1.990       .  S
Zn393       O400   2.063       .  S
Zn393       O404   1.999       .  S
Zn394       O396   1.939       .  S
Zn394       O399   1.995   1_455  S
Zn394       O402   2.002       .  S
Zn394       O405   2.013       .  S
Zn395       O396   1.950       .  S
Zn395       O403   2.077       .  S
Zn395       O406   2.019       .  S
Zn395       O407   2.016   1_455  S
O397        C409   1.280       .  A
O398        C410   1.272       .  A
O399        C411   1.273       .  A
O400        C409   1.277   1_455  A
O401        C411   1.275       .  A
O402        C410   1.273       .  A
O403        C412   1.279       .  A
O404        C413   1.277       .  A
O405        C412   1.271       .  A
O406        C413   1.277       .  A
O407        C414   1.275       .  A
O408        C414   1.279       .  A
C409       C3038   1.518       .  S
C410       C2822   1.478       .  S
C411       C2837   1.459       .  S
C412       C2909   1.495       .  S
C413       C2861   1.476       .  S
C414       C2894   1.486       .  S
Zn415       O419   1.937       .  S
Zn415       O420   1.998       .  S
Zn415       O424   2.005       .  S
Zn415       O431   2.061       .  S
Zn416       O419   1.952       .  S
Zn416       O421   2.067       .  S
Zn416       O423   1.994       .  S
Zn416       O427   2.045       .  S
Zn417       O419   1.944       .  S
Zn417       O422   1.991       .  S
Zn417       O425   2.068       .  S
Zn417       O428   2.023       .  S
Zn418       O419   1.945       .  S
Zn418       O426   2.013       .  S
Zn418       O429   2.014       .  S
Zn418       O430   2.080       .  S
O420        C432   1.276       .  A
O421        C433   1.278       .  A
O422        C434   1.270       .  A
O423        C432   1.273       .  A
O424        C434   1.274       .  A
O425        C433   1.278       .  A
O426        C435   1.277       .  A
O427        C436   1.280       .  A
O428        C435   1.278       .  A
O429        C436   1.275       .  A
O430        C437   1.279       .  A
O431        C437   1.277       .  A
C432       C2813   1.477       .  S
C433       C2765   1.512       .  S
C434       C2942   1.463       .  S
C435       C4214   1.481       .  S
C436       C2750   1.477       .  S
C437       C2789   1.517       .  S
Zn438       O442   1.967       .  S
Zn438       O443   2.048       .  S
Zn438       O447   2.052       .  S
Zn438       O454   2.114       .  S
Zn439       O442   1.918       .  S
Zn439       O444   2.070       .  S
Zn439       O446   1.991       .  S
Zn439       O450   1.965       .  S
Zn440       O442   1.934       .  S
Zn440       O445   1.999       .  S
Zn440       O448   2.072       .  S
Zn440       O451   1.975       .  S
Zn441       O442   1.942       .  S
Zn441       O449   2.007       .  S
Zn441       O452   2.023       .  S
Zn441       O453   2.021       .  S
O443        C455   1.280       .  A
O444        C456   1.277       .  A
O445        C457   1.276       .  A
O446        C455   1.274       .  A
O447        C457   1.280       .  A
O448        C456   1.277       .  A
O449        C458   1.276       .  A
O450        C459   1.271       .  A
O451        C458   1.271       .  A
O452        C459   1.274       .  A
O453        C460   1.274       .  A
O454        C460   1.283       .  A
C455       C4142   1.487       .  S
C456       C2798   1.517       .  S
C457       C2693   1.473       .  S
C458       C2846   1.475       .  S
C459       C2966   1.461       .  S
C460       C2717   1.510       .  S
Zn461       O465   1.964       .  S
Zn461       O466   2.035   1_545  S
Zn461       O470   2.102       .  S
Zn461       O477   2.030       .  S
Zn462       O465   1.918   1_565  S
Zn462       O467   1.961       .  S
Zn462       O469   2.011       .  S
Zn462       O473   2.081       .  S
Zn463       O465   1.928   1_565  S
Zn463       O468   2.015       .  S
Zn463       O471   2.019       .  S
Zn463       O474   2.027   1_565  S
Zn464       O465   1.916       .  S
Zn464       O472   1.978       .  S
Zn464       O475   2.086       .  S
Zn464       O476   1.994       .  S
O466        C478   1.279       .  A
O467        C479   1.270       .  A
O468        C480   1.273       .  A
O469        C478   1.277       .  A
O470        C480   1.282   1_545  A
O471        C479   1.279       .  A
O472        C481   1.272       .  A
O473        C482   1.278   1_565  A
O474        C481   1.277       .  A
O475        C482   1.278       .  A
O476        C483   1.276       .  A
O477        C483   1.278       .  A
C478       C2990   1.479       .  S
C479       C2621   1.474       .  S
C480       C4085   1.510       .  S
C481       C2597   1.474       .  S
C482       C2669   1.520       .  S
C483       C2645   1.475       .  S
Zn484       O488   1.942   1_565  S
Zn484       O489   2.085       .  S
Zn484       O493   1.999       .  S
Zn484       O500   1.993       .  S
Zn485       O488   1.939       .  S
Zn485       O490   1.998       .  S
Zn485       O492   2.092       .  S
Zn485       O496   1.976       .  S
Zn486       O488   1.992       .  S
Zn486       O491   2.060   1_545  S
Zn486       O494   2.042       .  S
Zn486       O497   2.132       .  S
Zn487       O488   1.949       .  S
Zn487       O495   2.003       .  S
Zn487       O498   2.016       .  S
Zn487       O499   1.994   1_545  S
O489        C501   1.278   1_565  A
O490        C502   1.276       .  A
O491        C503   1.281       .  A
O492        C501   1.279       .  A
O493        C503   1.275       .  A
O494        C502   1.279       .  A
O495        C504   1.270   1_545  A
O496        C505   1.271       .  A
O497        C504   1.284   1_545  A
O498        C505   1.274       .  A
O499        C506   1.273       .  A
O500        C506   1.274       .  A
C501       C2678   1.522       .  S
C502       C2549   1.476       .  S
C503       C2885   1.488       .  S
C504       C2573   1.504       .  S
C505       C2510   1.471       .  S
C506       C2525   1.471       .  S
Zn507       O511   1.938       .  S
Zn507       O512   1.988       .  S
Zn507       O516   2.031       .  S
Zn507       O523   1.979       .  S
Zn508       O511   1.954       .  S
Zn508       O513   2.027       .  S
Zn508       O515   2.036       .  S
Zn508       O519   2.092       .  S
Zn509       O511   1.950       .  S
Zn509       O514   2.062       .  S
Zn509       O517   2.022       .  S
Zn509       O520   1.990       .  S
Zn510       O511   1.941       .  S
Zn510       O518   2.014       .  S
Zn510       O521   2.049       .  S
Zn510       O522   2.010       .  S
O512        C524   1.273       .  A
O513        C525   1.278       .  A
O514        C526   1.277       .  A
O515        C524   1.279       .  A
O516        C526   1.274       .  A
O517        C525   1.278       .  A
O518        C527   1.276       .  A
O519        C528   1.281       .  A
O520        C527   1.272       .  A
O521        C528   1.276       .  A
O522        C529   1.275       .  A
O523        C529   1.269       .  A
C524       C3782   1.482       .  S
C525       C2438   1.487       .  S
C526       C2453   1.505       .  S
C527       C2501   1.476       .  S
C528       C2477   1.516       .  S
C529       C2606   1.468       .  S
Zn530       O534   1.931       .  S
Zn530       O535   2.067       .  S
Zn530       O539   1.997       .  S
Zn530       O546   1.983       .  S
Zn531       O534   1.927       .  S
Zn531       O536   2.009       .  S
Zn531       O538   2.086       .  S
Zn531       O542   1.971       .  S
Zn532       O534   1.966       .  S
Zn532       O537   2.045       .  S
Zn532       O540   2.021       .  S
Zn532       O543   2.117       .  S
Zn533       O534   1.931       .  S
Zn533       O541   2.008       .  S
Zn533       O544   2.002       .  S
Zn533       O545   1.996       .  S
O535        C547   1.277       .  A
O536        C548   1.277       .  A
O537        C549   1.281       .  A
O538        C547   1.279       .  A
O539        C549   1.277       .  A
O540        C548   1.277       .  A
O541        C550   1.271       .  A
O542        C551   1.271       .  A
O543        C550   1.282       .  A
O544        C551   1.273       .  A
O545        C552   1.273       .  A
O546        C552   1.271       .  A
C547       C2486   1.520       .  S
C548       C3701   1.481       .  S
C549       C2405   1.482       .  S
C550       C2726   1.511       .  S
C551       C2630   1.451       .  S
C552       C2534   1.465       .  S
Zn553       O557   1.966       .  S
Zn553       O558   2.028       .  S
Zn553       O562   2.112       .  S
Zn553       O569   2.045   1_565  S
Zn554       O557   1.925       .  S
Zn554       O559   1.971       .  S
Zn554       O561   2.001       .  S
Zn554       O565   2.087       .  S
Zn555       O557   1.940   1_545  S
Zn555       O560   2.024       .  S
Zn555       O563   2.011   1_545  S
Zn555       O566   2.009       .  S
Zn556       O557   1.931   1_545  S
Zn556       O564   1.973       .  S
Zn556       O567   2.082       .  S
Zn556       O568   2.007       .  S
O558        C570   1.278       .  A
O559        C571   1.271       .  A
O560        C572   1.273       .  A
O561        C570   1.277       .  A
O562        C572   1.283   1_565  A
O563        C571   1.274       .  A
O564        C573   1.271       .  A
O565        C574   1.279       .  A
O566        C573   1.276       .  A
O567        C574   1.279   1_545  A
O568        C575   1.277       .  A
O569        C575   1.280       .  A
C570       C3542   1.482       .  S
C571       C2333   1.464       .  S
C572       C2582   1.514       .  S
C573       C2309   1.465       .  S
C574       C2390   1.523       .  S
C575       C2366   1.483       .  S
Zn576       O580   1.953       .  S
Zn576       O581   2.038       .  S
Zn576       O585   2.102       .  S
Zn576       O592   2.016   1_565  S
Zn577       O580   1.946       .  S
Zn577       O582   1.984       .  S
Zn577       O584   2.008       .  S
Zn577       O588   2.058       .  S
Zn578       O580   1.943       .  S
Zn578       O583   2.059       .  S
Zn578       O586   2.004       .  S
Zn578       O589   2.018   1_565  S
Zn579       O580   1.942   1_545  S
Zn579       O587   1.962       .  S
Zn579       O590   2.040       .  S
Zn579       O591   2.006       .  S
O581        C593   1.280       .  A
O582        C594   1.270       .  A
O583        C595   1.277       .  A
O584        C593   1.276       .  A
O585        C595   1.282       .  A
O586        C594   1.276       .  A
O587        C596   1.269       .  A
O588        C597   1.276       .  A
O589        C596   1.275       .  A
O590        C597   1.274   1_545  A
O591        C598   1.275       .  A
O592        C598   1.277       .  A
C593       C3638   1.482       .  S
C594       C2237   1.461       .  S
C595       C2381   1.522       .  S
C596       C2213   1.473       .  S
C597       C2294   1.506       .  S
C598       C2261   1.478       .  S
Zn599       O603   1.954       .  S
Zn599       O604   2.010       .  S
Zn599       O608   2.008       .  S
Zn599       O615   1.998       .  S
Zn600       O603   1.940       .  S
Zn600       O605   2.003       .  S
Zn600       O607   1.978       .  S
Zn600       O611   2.086       .  S
Zn601       O603   1.980       .  S
Zn601       O606   2.102       .  S
Zn601       O609   2.023       .  S
Zn601       O612   2.047       .  S
Zn602       O603   1.936       .  S
Zn602       O610   1.994       .  S
Zn602       O613   2.076       .  S
Zn602       O614   1.980       .  S
O604        C616   1.273       .  A
O605        C617   1.276       .  A
O606        C618   1.281       .  A
O607        C616   1.272       .  A
O608        C618   1.271       .  A
O609        C617   1.276       .  A
O610        C619   1.275       .  A
O611        C620   1.278       .  A
O612        C619   1.280       .  A
O613        C620   1.278       .  A
O614        C621   1.271       .  A
O615        C621   1.272       .  A
C616       C2318   1.463       .  S
C617       C2429   1.484       .  S
C618       C2165   1.498       .  S
C619       C2141   1.482       .  S
C620       C2198   1.519       .  S
C621       C2222   1.472       .  S
Zn622       O626   1.952       .  S
Zn622       O627   2.009       .  S
Zn622       O631   2.012       .  S
Zn622       O638   2.004       .  S
Zn623       O626   1.927       .  S
Zn623       O628   2.074       .  S
Zn623       O630   1.964       .  S
Zn623       O634   2.001       .  S
Zn624       O626   1.934       .  S
Zn624       O629   1.990       .  S
Zn624       O632   2.094       .  S
Zn624       O635   2.020       .  S
Zn625       O626   1.969       .  S
Zn625       O633   2.011       .  S
Zn625       O636   2.025       .  S
Zn625       O637   2.078       .  S
O627        C639   1.274       .  A
O628        C640   1.278       .  A
O629        C641   1.274       .  A
O630        C639   1.269       .  A
O631        C641   1.274       .  A
O632        C640   1.281       .  A
O633        C642   1.275       .  A
O634        C643   1.276       .  A
O635        C642   1.278       .  A
O636        C643   1.276       .  A
O637        C644   1.278       .  A
O638        C644   1.270       .  A
C639       C2342   1.471       .  S
C640       C2189   1.516       .  S
C641       C2246   1.466       .  S
C642       C2117   1.484       .  S
C643       C2414   1.469       .  S
C644       C3446   1.496       .  S
Zn645       O649   1.976       .  S
Zn645       O650   2.050   1_556  S
Zn645       O654   2.110       .  S
Zn645       O661   2.037       .  S
Zn646       O649   1.934   1_554  S
Zn646       O651   1.964       .  S
Zn646       O653   1.990       .  S
Zn646       O657   2.069       .  S
Zn647       O649   1.938       .  S
Zn647       O652   1.995   1_556  S
Zn647       O655   2.002   1_556  S
Zn647       O658   2.009       .  S
Zn648       O649   1.923       .  S
Zn648       O656   1.970       .  S
Zn648       O659   2.055       .  S
Zn648       O660   1.982       .  S
O650        C662   1.279       .  A
O651        C663   1.270       .  A
O652        C664   1.271   1_554  A
O653        C662   1.274       .  A
O654        C664   1.283       .  A
O655        C663   1.274       .  A
O656        C665   1.270       .  A
O657        C666   1.276   1_554  A
O658        C665   1.273       .  A
O659        C666   1.275       .  A
O660        C667   1.275       .  A
O661        C667   1.279       .  A
C662       C2357   1.478       .  S
C663       C2045   1.470       .  S
C664       C3230   1.508   1_556  S
C665       C2078   1.469       .  S
C666       C2093   1.508       .  S
C667       C4070   1.481       .  S
Zn668       O672   1.951       .  S
Zn668       O673   2.014       .  S
Zn668       O677   2.023   1_556  S
Zn668       O684   2.089       .  S
Zn669       O672   1.948       .  S
Zn669       O674   2.048       .  S
Zn669       O676   2.001       .  S
Zn669       O680   1.972       .  S
Zn670       O672   1.934   1_554  S
Zn670       O675   1.989       .  S
Zn670       O678   2.029       .  S
Zn670       O681   1.968       .  S
Zn671       O672   1.935       .  S
Zn671       O679   2.003   1_556  S
Zn671       O682   1.995       .  S
Zn671       O683   2.041       .  S
O673        C685   1.277       .  A
O674        C686   1.276       .  A
O675        C687   1.273       .  A
O676        C685   1.275       .  A
O677        C687   1.277       .  A
O678        C686   1.273   1_554  A
O679        C688   1.275       .  A
O680        C689   1.268       .  A
O681        C688   1.268       .  A
O682        C689   1.273       .  A
O683        C690   1.275       .  A
O684        C690   1.281       .  A
C685       C3926   1.473       .  S
C686       C2021   1.503       .  S
C687       C2270   1.473       .  S
C688       C1973   1.473       .  S
C689       C2006   1.462       .  S
C690       C2102   1.514       .  S
Zn691       O695   1.974       .  S
Zn691       O696   2.105       .  S
Zn691       O700   2.033       .  S
Zn691       O707   2.029       .  S
Zn692       O695   1.934       .  S
Zn692       O697   2.002       .  S
Zn692       O699   2.002       .  S
Zn692       O703   2.002       .  S
Zn693       O695   1.923       .  S
Zn693       O698   1.980       .  S
Zn693       O701   1.977       .  S
Zn693       O704   2.067       .  S
Zn694       O695   1.926       .  S
Zn694       O702   2.084       .  S
Zn694       O705   1.965       .  S
Zn694       O706   1.987       .  S
O696        C708   1.281       .  A
O697        C709   1.274       .  A
O698        C710   1.273       .  A
O699        C708   1.270       .  A
O700        C710   1.278       .  A
O701        C709   1.272       .  A
O702        C711   1.278       .  A
O703        C712   1.274       .  A
O704        C711   1.276       .  A
O705        C712   1.271       .  A
O706        C713   1.275       .  A
O707        C713   1.278       .  A
C708       C2174   1.502       .  S
C709       C1982   1.474       .  S
C710       C1925   1.462       .  S
C711       C1949   1.520       .  S
C712       C2054   1.464       .  S
C713       C3086   1.478       .  S
Zn714       O718   1.918       .  S
Zn714       O719   1.961       .  S
Zn714       O723   1.992       .  S
Zn714       O730   2.088       .  S
Zn715       O718   1.936       .  S
Zn715       O720   2.010       .  S
Zn715       O722   2.025       .  S
Zn715       O726   2.008       .  S
Zn716       O718   1.973       .  S
Zn716       O721   2.026       .  S
Zn716       O724   2.124       .  S
Zn716       O727   2.053       .  S
Zn717       O718   1.930       .  S
Zn717       O725   1.987       .  S
Zn717       O728   1.975       .  S
Zn717       O729   2.068       .  S
O719        C731   1.272       .  A
O720        C732   1.271       .  A
O721        C733   1.278       .  A
O722        C731   1.276       .  A
O723        C733   1.275       .  A
O724        C732   1.283       .  A
O725        C734   1.274       .  A
O726        C735   1.276       .  A
O727        C734   1.281       .  A
O728        C735   1.271       .  A
O729        C736   1.276       .  A
O730        C736   1.278       .  A
C731       C1997   1.471       .  S
C732       C3821   1.515       .  S
C733       C1901   1.482       .  S
C734       C3062   1.475       .  S
C735       C2069   1.462       .  S
C736       C1958   1.517       .  S
Zn737       O741   1.945       .  S
Zn737       O742   2.016   1_556  S
Zn737       O746   2.023       .  S
Zn737       O753   2.106       .  S
Zn738       O741   1.930   1_554  S
Zn738       O743   2.033       .  S
Zn738       O745   2.000       .  S
Zn738       O749   1.968       .  S
Zn739       O741   1.954       .  S
Zn739       O744   2.024       .  S
Zn739       O747   2.060       .  S
Zn739       O750   1.985       .  S
Zn740       O741   1.934       .  S
Zn740       O748   2.004       .  S
Zn740       O751   2.015   1_556  S
Zn740       O752   2.059       .  S
O742        C754   1.277       .  A
O743        C755   1.274       .  A
O744        C756   1.278       .  A
O745        C754   1.275       .  A
O746        C756   1.278       .  A
O747        C755   1.276   1_556  A
O748        C757   1.277       .  A
O749        C758   1.268       .  A
O750        C757   1.271       .  A
O751        C758   1.276       .  A
O752        C759   1.277       .  A
O753        C759   1.282       .  A
C754       C1862   1.474       .  S
C755       C2030   1.497       .  S
C756       C4382   1.481       .  S
C757       C1838   1.471       .  S
C758       C1805   1.466       .  S
C759       C1886   1.518       .  S
Zn760       O764   1.955       .  S
Zn760       O765   2.026   1_554  S
Zn760       O769   2.027       .  S
Zn760       O776   2.108       .  S
Zn761       O764   1.941   1_556  S
Zn761       O766   2.048       .  S
Zn761       O768   2.003       .  S
Zn761       O772   1.966       .  S
Zn762       O764   1.959       .  S
Zn762       O767   2.019       .  S
Zn762       O770   2.068       .  S
Zn762       O773   1.971       .  S
Zn763       O764   1.938   1_556  S
Zn763       O771   1.991   1_556  S
Zn763       O774   2.001       .  S
Zn763       O775   2.070   1_556  S
O765        C777   1.278       .  A
O766        C778   1.274       .  A
O767        C779   1.277       .  A
O768        C777   1.276       .  A
O769        C779   1.278       .  A
O770        C778   1.277   1_554  A
O771        C780   1.275       .  A
O772        C781   1.268       .  A
O773        C780   1.269       .  A
O774        C781   1.274       .  A
O775        C782   1.278       .  A
O776        C782   1.283       .  A
C777       C4469   1.484       .  S
C778       C3653   1.514       .  S
C779       C1781   1.473       .  S
C780       C1733   1.470       .  S
C781       C1757   1.465       .  S
C782       C1877   1.522       .  S
Zn783       O787   1.914       .  S
Zn783       O788   1.956       .  S
Zn783       O792   2.066       .  S
Zn783       O799   1.986       .  S
Zn784       O787   1.937       .  S
Zn784       O789   2.026       .  S
Zn784       O791   2.019       .  S
Zn784       O795   2.004       .  S
Zn785       O787   1.910       .  S
Zn785       O790   2.068       .  S
Zn785       O793   1.963       .  S
Zn785       O796   1.986       .  S
Zn786       O787   1.963       .  S
Zn786       O794   2.022       .  S
Zn786       O797   2.095       .  S
Zn786       O798   2.041       .  S
O788        C800   1.269       .  A
O789        C801   1.277       .  A
O790        C802   1.276       .  A
O791        C800   1.276       .  A
O792        C802   1.277       .  A
O793        C801   1.271       .  A
O794        C803   1.277       .  A
O795        C804   1.271       .  A
O796        C803   1.275       .  A
O797        C804   1.281       .  A
O798        C805   1.278       .  A
O799        C805   1.275       .  A
C800       C1742   1.474       .  S
C801       C1814   1.465       .  S
C802       C1709   1.515       .  S
C803       C1934   1.481       .  S
C804       C1685   1.505       .  S
C805       C3422   1.478       .  S
Zn806       O810   1.897       .  S
Zn806       O811   2.060       .  S
Zn806       O815   1.950       .  S
Zn806       O822   1.983       .  S
Zn807       O810   1.912       .  S
Zn807       O812   1.977       .  S
Zn807       O814   2.074       .  S
Zn807       O818   1.986       .  S
Zn808       O810   1.919       .  S
Zn808       O813   2.016       .  S
Zn808       O816   2.014       .  S
Zn808       O819   1.998       .  S
Zn809       O810   1.960       .  S
Zn809       O817   2.114       .  S
Zn809       O820   2.032       .  S
Zn809       O821   2.047       .  S
O811        C823   1.276       .  A
O812        C824   1.272       .  A
O813        C825   1.277       .  A
O814        C823   1.277       .  A
O815        C825   1.270       .  A
O816        C824   1.277       .  A
O817        C826   1.283       .  A
O818        C827   1.275       .  A
O819        C826   1.271       .  A
O820        C827   1.279       .  A
O821        C828   1.280       .  A
O822        C828   1.275       .  A
C823       C1718   1.514       .  S
C824       C1829   1.476       .  S
C825       C1766   1.464       .  S
C826       C4262   1.510       .  S
C827       C1910   1.464       .  S
C828       C3374   1.486       .  S
Zn829       O833   1.946       .  S
Zn829       O834   2.049       .  S
Zn829       O838   1.966       .  S
Zn829       O845   2.031       .  S
Zn830       O833   1.944   1_455  S
Zn830       O835   1.968       .  S
Zn830       O837   2.042       .  S
Zn830       O841   2.013       .  S
Zn831       O833   1.946       .  S
Zn831       O836   2.010       .  S
Zn831       O839   2.022   1_655  S
Zn831       O842   2.079   1_655  S
Zn832       O833   1.938       .  S
Zn832       O840   2.081       .  S
Zn832       O843   2.009   1_655  S
Zn832       O844   2.005       .  S
O834        C846   1.275       .  A
O835        C847   1.270       .  A
O836        C848   1.277       .  A
O837        C846   1.274   1_455  A
O838        C848   1.269       .  A
O839        C847   1.277       .  A
O840        C849   1.279       .  A
O841        C850   1.276       .  A
O842        C849   1.279   1_455  A
O843        C850   1.277       .  A
O844        C851   1.275       .  A
O845        C851   1.278       .  A
C846       C2918   1.502       .  S
C847       C1622   1.471       .  S
C848       C1637   1.470       .  S
C849       C1670   1.522       .  S
C850       C1790   1.483       .  S
C851       C3302   1.486       .  S
Zn852       O856   1.923   1_655  S
Zn852       O857   2.002       .  S
Zn852       O861   2.075       .  S
Zn852       O868   1.968       .  S
Zn853       O856   1.967       .  S
Zn853       O858   2.033       .  S
Zn853       O860   2.034   1_455  S
Zn853       O864   2.111       .  S
Zn854       O856   1.925       .  S
Zn854       O859   2.087       .  S
Zn854       O862   1.998       .  S
Zn854       O865   1.981       .  S
Zn855       O856   1.935       .  S
Zn855       O863   2.010       .  S
Zn855       O866   2.004       .  S
Zn855       O867   2.006   1_455  S
O857        C869   1.276       .  A
O858        C870   1.279       .  A
O859        C871   1.279   1_455  A
O860        C869   1.278       .  A
O861        C871   1.278       .  A
O862        C870   1.277       .  A
O863        C872   1.276       .  A
O864        C873   1.282       .  A
O865        C872   1.271       .  A
O866        C873   1.271       .  A
O867        C874   1.275       .  A
O868        C874   1.271       .  A
C869       C3206   1.478       .  S
C870       C1853   1.476       .  S
C871       C1661   1.522       .  S
C872       C1541   1.472       .  S
C873       C1589   1.505       .  S
C874       C1565   1.467       .  S
Zn875       O879   1.941       .  S
Zn875       O880   2.041       .  S
Zn875       O884   2.014       .  S
Zn875       O891   1.966       .  S
Zn876       O879   1.951       .  S
Zn876       O881   2.021       .  S
Zn876       O883   2.047       .  S
Zn876       O887   1.982       .  S
Zn877       O879   1.948       .  S
Zn877       O882   2.034       .  S
Zn877       O885   2.011       .  S
Zn877       O888   2.075       .  S
Zn878       O879   1.950       .  S
Zn878       O886   2.068       .  S
Zn878       O889   2.016       .  S
Zn878       O890   2.017       .  S
O880        C892   1.274       .  A
O881        C893   1.277       .  A
O882        C894   1.278       .  A
O883        C892   1.275       .  A
O884        C894   1.276       .  A
O885        C893   1.277       .  A
O886        C895   1.278       .  A
O887        C896   1.271       .  A
O888        C895   1.279       .  A
O889        C896   1.276       .  A
O890        C897   1.276       .  A
O891        C897   1.269       .  A
C892       C1694   1.505       .  S
C893       C1493   1.475       .  S
C894       C2741   1.491       .  S
C895       C1517   1.516       .  S
C896       C1550   1.474       .  S
C897       C1613   1.468       .  S
Zn898       O902   1.925       .  S
Zn898       O903   1.980       .  S
Zn898       O907   1.994       .  S
Zn898       O914   2.067       .  S
Zn899       O902   1.934       .  S
Zn899       O904   2.002       .  S
Zn899       O906   2.002       .  S
Zn899       O910   2.011       .  S
Zn900       O902   1.960       .  S
Zn900       O905   2.039       .  S
Zn900       O908   2.101       .  S
Zn900       O911   2.036       .  S
Zn901       O902   1.915       .  S
Zn901       O909   2.009       .  S
Zn901       O912   1.969       .  S
Zn901       O913   2.076       .  S
O903        C915   1.272       .  A
O904        C916   1.270       .  A
O905        C917   1.279       .  A
O906        C915   1.274       .  A
O907        C917   1.275       .  A
O908        C916   1.281       .  A
O909        C918   1.278       .  A
O910        C919   1.275       .  A
O911        C918   1.278       .  A
O912        C919   1.272       .  A
O913        C920   1.278       .  A
O914        C920   1.277       .  A
C915       C1574   1.472       .  S
C916       C3110   1.498       .  S
C917       C1469   1.472       .  S
C918       C2702   1.487       .  S
C919       C1646   1.467       .  S
C920       C1526   1.515       .  S
Zn921       O925   1.925   1_545  S
Zn921       O926   2.007       .  S
Zn921       O930   2.003       .  S
Zn921       O937   2.015   1_545  S
Zn922       O925   1.964       .  S
Zn922       O927   2.037   1_565  S
Zn922       O929   2.101       .  S
Zn922       O933   2.051       .  S
Zn923       O925   1.924   1_545  S
Zn923       O928   1.987       .  S
Zn923       O931   2.010       .  S
Zn923       O934   2.075       .  S
Zn924       O925   1.913       .  S
Zn924       O932   2.063       .  S
Zn924       O935   1.976       .  S
Zn924       O936   1.968       .  S
O926        C938   1.272       .  A
O927        C939   1.278       .  A
O928        C940   1.272       .  A
O929        C938   1.283   1_565  A
O930        C940   1.276       .  A
O931        C939   1.278       .  A
O932        C941   1.276       .  A
O933        C942   1.279       .  A
O934        C941   1.278   1_545  A
O935        C942   1.273       .  A
O936        C943   1.271       .  A
O937        C943   1.275       .  A
C938       C3974   1.508       .  S
C939       C1421   1.470       .  S
C940       C1382   1.475       .  S
C941       C1445   1.506       .  S
C942       C3014   1.479       .  S
C943       C1397   1.463       .  S
Zn944       O948   1.980       .  S
Zn944       O949   2.033   1_545  S
Zn944       O953   2.103       .  S
Zn944       O960   2.046       .  S
Zn945       O948   1.944   1_565  S
Zn945       O950   1.991       .  S
Zn945       O952   1.994       .  S
Zn945       O956   2.084       .  S
Zn946       O948   1.934       .  S
Zn946       O951   1.998   1_545  S
Zn946       O954   1.986   1_545  S
Zn946       O957   1.977       .  S
Zn947       O948   1.943       .  S
Zn947       O955   1.992       .  S
Zn947       O958   2.059       .  S
Zn947       O959   2.001       .  S
O949        C961   1.277       .  A
O950        C962   1.271       .  A
O951        C963   1.269   1_565  A
O952        C961   1.276       .  A
O953        C963   1.281       .  A
O954        C962   1.271       .  A
O955        C964   1.272       .  A
O956        C965   1.279       .  A
O957        C964   1.271       .  A
O958        C965   1.276   1_545  A
O959        C966   1.275       .  A
O960        C966   1.279       .  A
C961       C2870   1.464       .  S
C962       C1334   1.468       .  S
C963       C2285   1.501       .  S
C964       C1301   1.465       .  S
C965       C1454   1.515       .  S
C966       C1349   1.476       .  S
Zn967       O971   1.961       .  S
Zn967       O972   2.046       .  S
Zn967       O976   2.022       .  S
Zn967       O983   2.115       .  S
Zn968       O971   1.933       .  S
Zn968       O973   2.061       .  S
Zn968       O975   1.997       .  S
Zn968       O979   1.986       .  S
Zn969       O971   1.920       .  S
Zn969       O974   1.999       .  S
Zn969       O977   2.077       .  S
Zn969       O980   1.982       .  S
Zn970       O971   1.920       .  S
Zn970       O978   2.011       .  S
Zn970       O981   1.991       .  S
Zn970       O982   2.004       .  S
O972        C984   1.280       .  A
O973        C985   1.276       .  A
O974        C986   1.276       .  A
O975        C984   1.276       .  A
O976        C986   1.277       .  A
O977        C985   1.279       .  A
O978        C987   1.275       .  A
O979        C988   1.271       .  A
O980        C987   1.273       .  A
O981        C988   1.275       .  A
O982        C989   1.271       .  A
O983        C989   1.283       .  A
C984       C2150   1.478       .  S
C985       C1286   1.516       .  S
C986       C3806   1.475       .  S
C987       C1373   1.468       .  S
C988       C1310   1.460       .  S
C989       C1262   1.510       .  S
Zn990       O994   1.956       .  S
Zn990       O995   2.033       .  S
Zn990       O999   2.076       .  S
Zn990      O1006   1.994       .  S
Zn991       O994   1.951       .  S
Zn991       O996   2.025       .  S
Zn991       O998   1.999       .  S
Zn991      O1002   2.091       .  S
Zn992       O994   1.946       .  S
Zn992       O997   2.053       .  S
Zn992      O1000   2.017       .  S
Zn992      O1003   1.987       .  S
Zn993       O994   1.933       .  S
Zn993      O1001   1.990       .  S
Zn993      O1004   2.051       .  S
Zn993      O1005   1.989       .  S
O995       C1007   1.279       .  A
O996       C1008   1.278       .  A
O997       C1009   1.277       .  A
O998       C1007   1.274       .  A
O999       C1009   1.279       .  A
O1000      C1008   1.277       .  A
O1001      C1010   1.274       .  A
O1002      C1011   1.280       .  A
O1003      C1010   1.270       .  A
O1004      C1011   1.276       .  A
O1005      C1012   1.273       .  A
O1006      C1012   1.272       .  A
C1007      C3734   1.481       .  S
C1008      C2126   1.480       .  S
C1009      C2774   1.512       .  S
C1010      C1325   1.467       .  S
C1011      C1277   1.517       .  S
C1012      C1406   1.467       .  S
Zn1013     O1017   1.926   1_655  S
Zn1013     O1018   2.085       .  S
Zn1013     O1022   1.982       .  S
Zn1013     O1029   2.012       .  S
Zn1014     O1017   1.924       .  S
Zn1014     O1019   1.973       .  S
Zn1014     O1021   2.071       .  S
Zn1014     O1025   1.991       .  S
Zn1015     O1017   1.939       .  S
Zn1015     O1020   2.007   1_455  S
Zn1015     O1023   2.010       .  S
Zn1015     O1026   2.003       .  S
Zn1016     O1017   1.968       .  S
Zn1016     O1024   2.104       .  S
Zn1016     O1027   2.049       .  S
Zn1016     O1028   2.026   1_455  S
O1018      C1030   1.280   1_655  A
O1019      C1031   1.270       .  A
O1020      C1032   1.274       .  A
O1021      C1030   1.277       .  A
O1022      C1032   1.272       .  A
O1023      C1031   1.275       .  A
O1024      C1033   1.282       .  A
O1025      C1034   1.275       .  A
O1026      C1033   1.271       .  A
O1027      C1034   1.281       .  A
O1028      C1035   1.277       .  A
O1029      C1035   1.277       .  A
C1030      C1238   1.520       .  S
C1031      C1181   1.473       .  S
C1032      C1205   1.462       .  S
C1033      C4397   1.503       .  S
C1034      C1430   1.489       .  S
C1035      C2654   1.480       .  S
Zn1036     O1040   1.930       .  S
Zn1036     O1041   2.000       .  S
Zn1036     O1045   1.977       .  S
Zn1036     O1052   2.082       .  S
Zn1037     O1040   1.963       .  S
Zn1037     O1042   2.092       .  S
Zn1037     O1044   2.040       .  S
Zn1037     O1048   2.025   1_655  S
Zn1038     O1040   1.958       .  S
Zn1038     O1043   2.026       .  S
Zn1038     O1046   2.031       .  S
Zn1038     O1049   2.034   1_655  S
Zn1039     O1040   1.922   1_455  S
Zn1039     O1047   1.963       .  S
Zn1039     O1050   2.006       .  S
Zn1039     O1051   2.073       .  S
O1041      C1053   1.276       .  A
O1042      C1054   1.281       .  A
O1043      C1055   1.278       .  A
O1044      C1053   1.280       .  A
O1045      C1055   1.271       .  A
O1046      C1054   1.273       .  A
O1047      C1056   1.272       .  A
O1048      C1057   1.276       .  A
O1049      C1056   1.277       .  A
O1050      C1057   1.276       .  A
O1051      C1058   1.277       .  A
O1052      C1058   1.279   1_655  A
C1053      C2558   1.482       .  S
C1054      C1598   1.502       .  S
C1055      C1157   1.475       .  S
C1056      C1133   1.459       .  S
C1057      C1358   1.486       .  S
C1058      C1229   1.521       .  S
Zn1059     O1063   1.943       .  S
Zn1059     O1064   1.977       .  S
Zn1059     O1068   2.066       .  S
Zn1059     O1075   2.019       .  S
Zn1060     O1063   1.945       .  S
Zn1060     O1065   2.017       .  S
Zn1060     O1067   2.016       .  S
Zn1060     O1071   2.072       .  S
Zn1061     O1063   1.938       .  S
Zn1061     O1066   2.053       .  S
Zn1061     O1069   1.974       .  S
Zn1061     O1072   2.027       .  S
Zn1062     O1063   1.943       .  S
Zn1062     O1070   2.009       .  S
Zn1062     O1073   2.083       .  S
Zn1062     O1074   2.009       .  S
O1064      C1076   1.270       .  A
O1065      C1077   1.277       .  A
O1066      C1078   1.276       .  A
O1067      C1076   1.277       .  A
O1068      C1078   1.278       .  A
O1069      C1077   1.272       .  A
O1070      C1079   1.275       .  A
O1071      C1080   1.278       .  A
O1072      C1079   1.278       .  A
O1073      C1080   1.280       .  A
O1074      C1081   1.276       .  A
O1075      C1081   1.278       .  A
C1076      C1142   1.463       .  S
C1077      C1190   1.476       .  S
C1078      C1253   1.512       .  S
C1079      C4238   1.483       .  S
C1080      C1109   1.520       .  S
C1081      C1502   1.479       .  S
Zn1082     O1086   1.919       .  S
Zn1082     O1087   2.086       .  S
Zn1082     O1091   2.007       .  S
Zn1082     O1098   1.976       .  S
Zn1083     O1086   1.921       .  S
Zn1083     O1088   1.987       .  S
Zn1083     O1090   2.059       .  S
Zn1083     O1094   1.964       .  S
Zn1084     O1086   1.958       .  S
Zn1084     O1089   2.019       .  S
Zn1084     O1092   2.046       .  S
Zn1084     O1095   2.091       .  S
Zn1085     O1086   1.939       .  S
Zn1085     O1093   2.014       .  S
Zn1085     O1096   2.015       .  S
Zn1085     O1097   2.022       .  S
O1087      C1099   1.279       .  A
O1088      C1100   1.274       .  A
O1089      C1101   1.277       .  A
O1090      C1099   1.276       .  A
O1091      C1101   1.276       .  A
O1092      C1100   1.280       .  A
O1093      C1102   1.272       .  A
O1094      C1103   1.268       .  A
O1095      C1102   1.281       .  A
O1096      C1103   1.277       .  A
O1097      C1104   1.276       .  A
O1098      C1104   1.273       .  A
C1099      C1118   1.518       .  S
C1100      C4166   1.486       .  S
C1101      C1478   1.484       .  S
C1102      C2462   1.501       .  S
C1103      C1214   1.472       .  S
C1104      C1166   1.462       .  S
C1105      C1106   1.407       .  A
C1105      C1110   1.414       .  A
C1105      H1115   1.083       .  S
C1106      C1111   1.512   1_455  S
C1106      C1107   1.411       .  A
C1107      C1108   1.414       .  A
C1107      O1112   1.371       .  S
C1108      C1109   1.414       .  A
C1108      H1113   1.083       .  S
C1109      C1110   1.419       .  A
C1110      O1114   1.371       .  S
C1111      C1116   1.410       .  A
C1111      C1120   1.409       .  A
O1112      H1128   0.992       .  S
O1114      H1125   0.992       .  S
C1116      C1117   1.412       .  A
C1116      O1121   1.371       .  S
C1117      C1118   1.413       .  A
C1117      H1122   1.083       .  S
C1118      C1119   1.419       .  A
C1119      C1120   1.416       .  A
C1119      O1123   1.371       .  S
C1120      H1124   1.083       .  S
O1121      H1126   0.991       .  S
O1123      H1127   0.992       .  S
C1129      C1130   1.397       .  A
C1129      C1134   1.393       .  A
C1129      H1139   1.084       .  S
C1130      C1135   1.466       .  S
C1130      C1131   1.410       .  A
C1131      C1132   1.398       .  A
C1131      O1136   1.373       .  S
C1132      C1133   1.398       .  A
C1132      H1137   1.084       .  S
C1133      C1134   1.409       .  A
C1134      O1138   1.372       .  S
C1135      C1140   1.409       .  A
C1135      C1144   1.397       .  A
O1136      H1152   0.992       .  S
O1138      H1149   0.991       .  S
C1140      C1141   1.394       .  A
C1140      O1145   1.372       .  S
C1141      C1142   1.398       .  A
C1141      H1146   1.084       .  S
C1142      C1143   1.412       .  A
C1143      C1144   1.396       .  A
C1143      O1147   1.372       .  S
C1144      H1148   1.084       .  S
O1145      H1150   0.992       .  S
O1147      H1151   0.992       .  S
C1153      C1154   1.398       .  A
C1153      C1158   1.395       .  A
C1153      H1163   1.084       .  S
C1154      C1159   1.469       .  S
C1154      C1155   1.410       .  A
C1155      C1156   1.395       .  A
C1155      O1160   1.372       .  S
C1156      C1157   1.401       .  A
C1156      H1161   1.083       .  S
C1157      C1158   1.415       .  A
C1158      O1162   1.372       .  S
C1159      C1164   1.402       .  A
C1159      C1168   1.406       .  A
O1160      H1176   0.991       .  S
O1162      H1173   0.992       .  S
C1164      C1165   1.394       .  A
C1164      O1169   1.371       .  S
C1165      C1166   1.405       .  A
C1165      H1170   1.084       .  S
C1166      C1167   1.403       .  A
C1167      C1168   1.396       .  A
C1167      O1171   1.372       .  S
C1168      H1172   1.084       .  S
O1169      H1174   0.992       .  S
O1171      H1175   0.992       .  S
C1177      C1178   1.396       .  A
C1177      C1182   1.393       .  A
C1177      H1187   1.084       .  S
C1178      C1183   1.462       .  S
C1178      C1179   1.406       .  A
C1179      C1180   1.395       .  A
C1179      O1184   1.372       .  S
C1180      C1181   1.403       .  A
C1180      H1185   1.083       .  S
C1181      C1182   1.414       .  A
C1182      O1186   1.372       .  S
C1183      C1188   1.398       .  A
C1183      C1192   1.401       .  A
O1184      H1200   0.991       .  S
O1186      H1197   0.992       .  S
C1188      C1189   1.396       .  A
C1188      O1193   1.372       .  S
C1189      C1190   1.411       .  A
C1189      H1194   1.083       .  S
C1190      C1191   1.410       .  A
C1191      C1192   1.392       .  A
C1191      O1195   1.371       .  S
C1192      H1196   1.084       .  S
O1193      H1198   0.991       .  S
O1195      H1199   0.992       .  S
C1201      C1202   1.400       .  A
C1201      C1206   1.393       .  A
C1201      H1211   1.084       .  S
C1202      C1207   1.471       .  S
C1202      C1203   1.412       .  A
C1203      C1204   1.394       .  A
C1203      O1208   1.372       .  S
C1204      C1205   1.398       .  A
C1204      H1209   1.084       .  S
C1205      C1206   1.409       .  A
C1206      O1210   1.372       .  S
C1207      C1212   1.411       .  A
C1207      C1216   1.399       .  A
O1208      H1224   0.992       .  S
O1210      H1221   0.992       .  S
C1212      C1213   1.392       .  A
C1212      O1217   1.372       .  S
C1213      C1214   1.400       .  A
C1213      H1218   1.084       .  S
C1214      C1215   1.416       .  A
C1215      C1216   1.394       .  A
C1215      O1219   1.372       .  S
C1216      H1220   1.084       .  S
O1217      H1222   0.992       .  S
O1219      H1223   0.991       .  S
C1225      C1226   1.411       .  A
C1225      C1230   1.416       .  A
C1225      H1235   1.083       .  S
C1226      C1231   1.522       .  S
C1226      C1227   1.416   1_455  A
C1227      C1228   1.413       .  A
C1227      O1232   1.371       .  S
C1228      C1229   1.411   1_655  A
C1228      H1233   1.083       .  S
C1229      C1230   1.419       .  A
C1230      O1234   1.371       .  S
C1231      C1236   1.416       .  A
C1231      C1240   1.410   1_455  A
O1232      H1248   0.991       .  S
O1234      H1245   0.992       .  S
C1236      C1237   1.417       .  A
C1236      O1241   1.372       .  S
C1237      C1238   1.413       .  A
C1237      H1242   1.083       .  S
C1238      C1239   1.417   1_455  A
C1239      C1240   1.414       .  A
C1239      O1243   1.371       .  S
C1240      H1244   1.083       .  S
O1241      H1246   0.992       .  S
O1243      H1247   0.992       .  S
C1249      C1250   1.408       .  A
C1249      C1254   1.410       .  A
C1249      H1259   1.083       .  S
C1250      C1255   1.509       .  S
C1250      C1251   1.411       .  A
C1251      C1252   1.411       .  A
C1251      O1256   1.371       .  S
C1252      C1253   1.413       .  A
C1252      H1257   1.083       .  S
C1253      C1254   1.416       .  A
C1254      O1258   1.371       .  S
C1255      C1260   1.409       .  A
C1255      C1264   1.412       .  A
O1256      H1272   0.992       .  S
O1258      H1269   0.992       .  S
C1260      C1261   1.404       .  A
C1260      O1265   1.372       .  S
C1261      C1262   1.411       .  A
C1261      H1266   1.083       .  S
C1262      C1263   1.415       .  A
C1263      C1264   1.418       .  A
C1263      O1267   1.371       .  S
C1264      H1268   1.083       .  S
O1265      H1270   0.992       .  S
O1267      H1271   0.991       .  S
C1273      C1274   1.409       .  A
C1273      C1278   1.416       .  A
C1273      H1283   1.083       .  S
C1274      C1279   1.512   1_565  S
C1274      C1275   1.411       .  A
C1275      C1276   1.411       .  A
C1275      O1280   1.372       .  S
C1276      C1277   1.412       .  A
C1276      H1281   1.083       .  S
C1277      C1278   1.418       .  A
C1278      O1282   1.371       .  S
C1279      C1284   1.413       .  A
C1279      C1288   1.406       .  A
O1280      H1296   0.992       .  S
O1282      H1293   0.992       .  S
C1284      C1285   1.412       .  A
C1284      O1289   1.371       .  S
C1285      C1286   1.411       .  A
C1285      H1290   1.083       .  S
C1286      C1287   1.420       .  A
C1287      C1288   1.413       .  A
C1287      O1291   1.371       .  S
C1288      H1292   1.083       .  S
O1289      H1294   0.992       .  S
O1291      H1295   0.990       .  S
C1297      C1298   1.403       .  A
C1297      C1302   1.390       .  A
C1297      H1307   1.084       .  S
C1298      C1303   1.464       .  S
C1298      C1299   1.402       .  A
C1299      C1300   1.395       .  A
C1299      O1304   1.371       .  S
C1300      C1301   1.406       .  A
C1300      H1305   1.084       .  S
C1301      C1302   1.407       .  A
C1302      O1306   1.372       .  S
C1303      C1308   1.404       .  A
C1303      C1312   1.402       .  A
O1304      H1320   0.991       .  S
O1306      H1317   0.992       .  S
C1308      C1309   1.394       .  A
C1308      O1313   1.373       .  S
C1309      C1310   1.401       .  A
C1309      H1314   1.084       .  S
C1310      C1311   1.407       .  A
C1311      C1312   1.393       .  A
C1311      O1315   1.373       .  S
C1312      H1316   1.084       .  S
O1313      H1318   0.992       .  S
O1315      H1319   0.990       .  S
C1321      C1322   1.398       .  A
C1321      C1326   1.398       .  A
C1321      H1331   1.084       .  S
C1322      C1327   1.459       .  S
C1322      C1323   1.404       .  A
C1323      C1324   1.389       .  A
C1323      O1328   1.373       .  S
C1324      C1325   1.401       .  A
C1324      H1329   1.084       .  S
C1325      C1326   1.413       .  A
C1326      O1330   1.372       .  S
C1327      C1332   1.404       .  A
C1327      C1336   1.397       .  A
O1328      H1344   0.992       .  S
O1330      H1341   0.992       .  S
C1332      C1333   1.392       .  A
C1332      O1337   1.372       .  S
C1333      C1334   1.403       .  A
C1333      H1338   1.084       .  S
C1334      C1335   1.411       .  A
C1335      C1336   1.395       .  A
C1335      O1339   1.371       .  S
C1336      H1340   1.084       .  S
O1337      H1342   0.992       .  S
O1339      H1343   0.992       .  S
C1345      C1346   1.404       .  A
C1345      C1350   1.405       .  A
C1345      H1355   1.084       .  S
C1346      C1351   1.477       .  S
C1346      C1347   1.406       .  A
C1347      C1348   1.397       .  A
C1347      O1352   1.373       .  S
C1348      C1349   1.403       .  A
C1348      H1353   1.084       .  S
C1349      C1350   1.410       .  A
C1350      O1354   1.371       .  S
C1351      C1356   1.405       .  A
C1351      C1360   1.401       .  A
O1352      H1368   0.992       .  S
O1354      H1365   0.992       .  S
C1356      C1357   1.398       .  A
C1356      O1361   1.373       .  S
C1357      C1358   1.407       .  A
C1357      H1362   1.083       .  S
C1358      C1359   1.415       .  A
C1359      C1360   1.402       .  A
C1359      O1363   1.372       .  S
C1360      H1364   1.084       .  S
O1361      H1366   0.992       .  S
O1363      H1367   0.992       .  S
C1369      C1370   1.406       .  A
C1369      C1374   1.396       .  A
C1369      H1379   1.082       .  S
C1370      C1375   1.476       .  S
C1370      C1371   1.407       .  A
C1371      C1372   1.393       .  A
C1371      O1376   1.372       .  S
C1372      C1373   1.404       .  A
C1372      H1377   1.084       .  S
C1373      C1374   1.406       .  A
C1374      O1378   1.372       .  S
C1375      C1380   1.405       .  A
C1375      C1384   1.404       .  A
O1376      H1392   0.992       .  S
O1378      H1389   0.991       .  S
C1380      C1381   1.398       .  A
C1380      O1385   1.374       .  S
C1381      C1382   1.408       .  A
C1381      H1386   1.083       .  S
C1382      C1383   1.408       .  A
C1383      C1384   1.392       .  A
C1383      O1387   1.373       .  S
C1384      H1388   1.083       .  S
O1385      H1390   0.992       .  S
O1387      H1391   0.992       .  S
C1393      C1394   1.396       .  A
C1393      C1398   1.392       .  A
C1393      H1403   1.084       .  S
C1394      C1399   1.460       .  S
C1394      C1395   1.407       .  A
C1395      C1396   1.395       .  A
C1395      O1400   1.372       .  S
C1396      C1397   1.399       .  A
C1396      H1401   1.084       .  S
C1397      C1398   1.411       .  A
C1398      O1402   1.372       .  S
C1399      C1404   1.400       .  A
C1399      C1408   1.400       .  A
O1400      H1416   0.992       .  S
O1402      H1413   0.992       .  S
C1404      C1405   1.397       .  A
C1404      O1409   1.371       .  S
C1405      C1406   1.407       .  A
C1405      H1410   1.083       .  S
C1406      C1407   1.408       .  A
C1407      C1408   1.390       .  A
C1407      O1411   1.372       .  S
C1408      H1412   1.084       .  S
O1409      H1414   0.992       .  S
O1411      H1415   0.992       .  S
C1417      C1418   1.404       .  A
C1417      C1422   1.403       .  A
C1417      H1427   1.083       .  S
C1418      C1423   1.479       .  S
C1418      C1419   1.408       .  A
C1419      C1420   1.395       .  A
C1419      O1424   1.372       .  S
C1420      C1421   1.401       .  A
C1420      H1425   1.084       .  S
C1421      C1422   1.408       .  A
C1422      O1426   1.371       .  S
C1423      C1428   1.406       .  A
C1423      C1432   1.399       .  A
O1424      H1440   0.992       .  S
O1426      H1437   0.992       .  S
C1428      C1429   1.406       .  A
C1428      O1433   1.371       .  S
C1429      C1430   1.410       .  A
C1429      H1434   1.083       .  S
C1430      C1431   1.415       .  A
C1431      C1432   1.392       .  A
C1431      O1435   1.372       .  S
C1432      H1436   1.084       .  S
O1433      H1438   0.992       .  S
O1435      H1439   0.992       .  S
C1441      C1442   1.413   1_545  A
C1441      C1446   1.411       .  A
C1441      H1451   1.082       .  S
C1442      C1447   1.525       .  S
C1442      C1443   1.420       .  A
C1443      C1444   1.415       .  A
C1443      O1448   1.371       .  S
C1444      C1445   1.407       .  A
C1444      H1449   1.083       .  S
C1445      C1446   1.411   1_565  A
C1446      O1450   1.372       .  S
C1447      C1452   1.418   1_565  A
C1447      C1456   1.413       .  A
O1448      H1464   0.991       .  S
O1450      H1461   0.992       .  S
C1452      C1453   1.412       .  A
C1452      O1457   1.371       .  S
C1453      C1454   1.409   1_545  A
C1453      H1458   1.083       .  S
C1454      C1455   1.416       .  A
C1455      C1456   1.415       .  A
C1455      O1459   1.371       .  S
C1456      H1460   1.082       .  S
O1457      H1462   0.992       .  S
O1459      H1463   0.992       .  S
C1465      C1466   1.401       .  A
C1465      C1470   1.401       .  A
C1465      H1475   1.084       .  S
C1466      C1471   1.472       .  S
C1466      C1467   1.405       .  A
C1467      C1468   1.395       .  A
C1467      O1472   1.372       .  S
C1468      C1469   1.404       .  A
C1468      H1473   1.084       .  S
C1469      C1470   1.410       .  A
C1470      O1474   1.371       .  S
C1471      C1476   1.403       .  A
C1471      C1480   1.400       .  A
O1472      H1488   0.992       .  S
O1474      H1485   0.991       .  S
C1476      C1477   1.399       .  A
C1476      O1481   1.371       .  S
C1477      C1478   1.409       .  A
C1477      H1482   1.083       .  S
C1478      C1479   1.414       .  A
C1479      C1480   1.397       .  A
C1479      O1483   1.372       .  S
C1480      H1484   1.084       .  S
O1481      H1486   0.992       .  S
O1483      H1487   0.991       .  S
C1489      C1490   1.405       .  A
C1489      C1494   1.402       .  A
C1489      H1499   1.083       .  S
C1490      C1495   1.482       .  S
C1490      C1491   1.409       .  A
C1491      C1492   1.394       .  A
C1491      O1496   1.372       .  S
C1492      C1493   1.403       .  A
C1492      H1497   1.084       .  S
C1493      C1494   1.410       .  A
C1494      O1498   1.371       .  S
C1495      C1500   1.408       .  A
C1495      C1504   1.403       .  A
O1496      H1512   0.992       .  S
O1498      H1509   0.992       .  S
C1500      C1501   1.401       .  A
C1500      O1505   1.372       .  S
C1501      C1502   1.406       .  A
C1501      H1506   1.083       .  S
C1502      C1503   1.411       .  A
C1503      C1504   1.396       .  A
C1503      O1507   1.372       .  S
C1504      H1508   1.084       .  S
O1505      H1510   0.992       .  S
O1507      H1511   0.992       .  S
C1513      C1514   1.409       .  A
C1513      C1518   1.414       .  A
C1513      H1523   1.083       .  S
C1514      C1519   1.515   1_455  S
C1514      C1515   1.413       .  A
C1515      C1516   1.412       .  A
C1515      O1520   1.371       .  S
C1516      C1517   1.412       .  A
C1516      H1521   1.083       .  S
C1517      C1518   1.418       .  A
C1518      O1522   1.371       .  S
C1519      C1524   1.413       .  A
C1519      C1528   1.409       .  A
O1520      H1536   0.992       .  S
O1522      H1533   0.992       .  S
C1524      C1525   1.414       .  A
C1524      O1529   1.372       .  S
C1525      C1526   1.411       .  A
C1525      H1530   1.083       .  S
C1526      C1527   1.417       .  A
C1527      C1528   1.413       .  A
C1527      O1531   1.371       .  S
C1528      H1532   1.083       .  S
O1529      H1534   0.992       .  S
O1531      H1535   0.992       .  S
C1537      C1538   1.398       .  A
C1537      C1542   1.394       .  A
C1537      H1547   1.084       .  S
C1538      C1543   1.464       .  S
C1538      C1539   1.407       .  A
C1539      C1540   1.394       .  A
C1539      O1544   1.372       .  S
C1540      C1541   1.402       .  A
C1540      H1545   1.083       .  S
C1541      C1542   1.414       .  A
C1542      O1546   1.372       .  S
C1543      C1548   1.401       .  A
C1543      C1552   1.401       .  A
O1544      H1560   0.991       .  S
O1546      H1557   0.992       .  S
C1548      C1549   1.396       .  A
C1548      O1553   1.371       .  S
C1549      C1550   1.409       .  A
C1549      H1554   1.083       .  S
C1550      C1551   1.409       .  A
C1551      C1552   1.393       .  A
C1551      O1555   1.372       .  S
C1552      H1556   1.084       .  S
O1553      H1558   0.992       .  S
O1555      H1559   0.992       .  S
C1561      C1562   1.405       .  A
C1561      C1566   1.393       .  A
C1561      H1571   1.083       .  S
C1562      C1567   1.470       .  S
C1562      C1563   1.404       .  A
C1563      C1564   1.392       .  A
C1563      O1568   1.372       .  S
C1564      C1565   1.407       .  A
C1564      H1569   1.084       .  S
C1565      C1566   1.405       .  A
C1566      O1570   1.371       .  S
C1567      C1572   1.403       .  A
C1567      C1576   1.404       .  A
O1568      H1584   0.992       .  S
O1570      H1581   0.992       .  S
C1572      C1573   1.396       .  A
C1572      O1577   1.373       .  S
C1573      C1574   1.408       .  A
C1573      H1578   1.084       .  S
C1574      C1575   1.408       .  A
C1575      C1576   1.392       .  A
C1575      O1579   1.372       .  S
C1576      H1580   1.084       .  S
O1577      H1582   0.992       .  S
O1579      H1583   0.992       .  S
C1585      C1586   1.410       .  A
C1585      C1590   1.417       .  A
C1585      H1595   1.083       .  S
C1586      C1591   1.501       .  S
C1586      C1587   1.407   1_655  A
C1587      C1588   1.404       .  A
C1587      O1592   1.372       .  S
C1588      C1589   1.410       .  A
C1588      H1593   1.084       .  S
C1589      C1590   1.414   1_455  A
C1590      O1594   1.371       .  S
C1591      C1596   1.409       .  A
C1591      C1600   1.408   1_655  A
O1592      H1608   0.992       .  S
O1594      H1605   0.992       .  S
C1596      C1597   1.408       .  A
C1596      O1601   1.371       .  S
C1597      C1598   1.409       .  A
C1597      H1602   1.083       .  S
C1598      C1599   1.413   1_655  A
C1599      C1600   1.413       .  A
C1599      O1603   1.371       .  S
C1600      H1604   1.083       .  S
O1601      H1606   0.992       .  S
O1603      H1607   0.992       .  S
C1609      C1610   1.402       .  A
C1609      C1614   1.394       .  A
C1609      H1619   1.084       .  S
C1610      C1615   1.461       .  S
C1610      C1611   1.400       .  A
C1611      C1612   1.394       .  A
C1611      O1616   1.371       .  S
C1612      C1613   1.408       .  A
C1612      H1617   1.084       .  S
C1613      C1614   1.406       .  A
C1614      O1618   1.372       .  S
C1615      C1620   1.400       .  A
C1615      C1624   1.402       .  A
O1616      H1632   0.992       .  S
O1618      H1629   0.992       .  S
C1620      C1621   1.395       .  A
C1620      O1625   1.372       .  S
C1621      C1622   1.409       .  A
C1621      H1626   1.083       .  S
C1622      C1623   1.407       .  A
C1623      C1624   1.394       .  A
C1623      O1627   1.372       .  S
C1624      H1628   1.084       .  S
O1625      H1630   0.992       .  S
O1627      H1631   0.992       .  S
C1633      C1634   1.395       .  A
C1633      C1638   1.395       .  A
C1633      H1643   1.084       .  S
C1634      C1639   1.459       .  S
C1634      C1635   1.406       .  A
C1635      C1636   1.391       .  A
C1635      O1640   1.373       .  S
C1636      C1637   1.401       .  A
C1636      H1641   1.084       .  S
C1637      C1638   1.416       .  A
C1638      O1642   1.371       .  S
C1639      C1644   1.399       .  A
C1639      C1648   1.402       .  A
O1640      H1656   0.992       .  S
O1642      H1653   0.992       .  S
C1644      C1645   1.392       .  A
C1644      O1649   1.373       .  S
C1645      C1646   1.406       .  A
C1645      H1650   1.084       .  S
C1646      C1647   1.407       .  A
C1647      C1648   1.396       .  A
C1647      O1651   1.372       .  S
C1648      H1652   1.084       .  S
O1649      H1654   0.992       .  S
O1651      H1655   0.992       .  S
C1657      C1658   1.406       .  A
C1657      C1662   1.415       .  A
C1657      H1667   1.083       .  S
C1658      C1663   1.512       .  S
C1658      C1659   1.411   1_655  A
C1659      C1660   1.416       .  A
C1659      O1664   1.371       .  S
C1660      C1661   1.414   1_455  A
C1660      H1665   1.083       .  S
C1661      C1662   1.421       .  A
C1662      O1666   1.371       .  S
C1663      C1668   1.411       .  A
C1663      C1672   1.406   1_655  A
O1664      H1680   0.992       .  S
O1666      H1677   0.992       .  S
C1668      C1669   1.415       .  A
C1668      O1673   1.371       .  S
C1669      C1670   1.414       .  A
C1669      H1674   1.083       .  S
C1670      C1671   1.421       .  A
C1671      C1672   1.416   1_655  A
C1671      O1675   1.371   1_655  S
C1672      H1676   1.083       .  S
O1673      H1678   0.992       .  S
O1675      H1679   0.992   1_455  S
C1681      C1682   1.409       .  A
C1681      C1686   1.414       .  A
C1681      H1691   1.083       .  S
C1682      C1687   1.501       .  S
C1682      C1683   1.408       .  A
C1683      C1684   1.402       .  A
C1683      O1688   1.372       .  S
C1684      C1685   1.411       .  A
C1684      H1689   1.083       .  S
C1685      C1686   1.414       .  A
C1686      O1690   1.371       .  S
C1687      C1692   1.409       .  A
C1687      C1696   1.406       .  A
O1688      H1704   0.992       .  S
O1690      H1701   0.991       .  S
C1692      C1693   1.409       .  A
C1692      O1697   1.371       .  S
C1693      C1694   1.410       .  A
C1693      H1698   1.083       .  S
C1694      C1695   1.417       .  A
C1695      C1696   1.408       .  A
C1695      O1699   1.372       .  S
C1696      H1700   1.084       .  S
O1697      H1702   0.991       .  S
O1699      H1703   0.992       .  S
C1705      C1706   1.410       .  A
C1705      C1710   1.414       .  A
C1705      H1715   1.083       .  S
C1706      C1711   1.518   1_554  S
C1706      C1707   1.415       .  A
C1707      C1708   1.411       .  A
C1707      O1712   1.371       .  S
C1708      C1709   1.410       .  A
C1708      H1713   1.083       .  S
C1709      C1710   1.418       .  A
C1710      O1714   1.371       .  S
C1711      C1716   1.416       .  A
C1711      C1720   1.409       .  A
O1712      H1728   0.992       .  S
O1714      H1725   0.992       .  S
C1716      C1717   1.414       .  A
C1716      O1721   1.371       .  S
C1717      C1718   1.411       .  A
C1717      H1722   1.083       .  S
C1718      C1719   1.416       .  A
C1719      C1720   1.410       .  A
C1719      O1723   1.371       .  S
C1720      H1724   1.083       .  S
O1721      H1726   0.991       .  S
O1723      H1727   0.992       .  S
C1729      C1730   1.398       .  A
C1729      C1734   1.396       .  A
C1729      H1739   1.084       .  S
C1730      C1735   1.462       .  S
C1730      C1731   1.408       .  A
C1731      C1732   1.386       .  A
C1731      O1736   1.373       .  S
C1732      C1733   1.401       .  A
C1732      H1737   1.084       .  S
C1733      C1734   1.415       .  A
C1734      O1738   1.371       .  S
C1735      C1740   1.400       .  A
C1735      C1744   1.403       .  A
O1736      H1752   0.992       .  S
O1738      H1749   0.992       .  S
C1740      C1741   1.390       .  A
C1740      O1745   1.372       .  S
C1741      C1742   1.410       .  A
C1741      H1746   1.083       .  S
C1742      C1743   1.408       .  A
C1743      C1744   1.394       .  A
C1743      O1747   1.371       .  S
C1744      H1748   1.084       .  S
O1745      H1750   0.992       .  S
O1747      H1751   0.992       .  S
C1753      C1754   1.395       .  A
C1753      C1758   1.394       .  A
C1753      H1763   1.084       .  S
C1754      C1759   1.458       .  S
C1754      C1755   1.407       .  A
C1755      C1756   1.391       .  A
C1755      O1760   1.373       .  S
C1756      C1757   1.401       .  A
C1756      H1761   1.084       .  S
C1757      C1758   1.413       .  A
C1758      O1762   1.372       .  S
C1759      C1764   1.407       .  A
C1759      C1768   1.395       .  A
O1760      H1776   0.992       .  S
O1762      H1773   0.992       .  S
C1764      C1765   1.392       .  A
C1764      O1769   1.371       .  S
C1765      C1766   1.399       .  A
C1765      H1770   1.084       .  S
C1766      C1767   1.413       .  A
C1767      C1768   1.391       .  A
C1767      O1771   1.372       .  S
C1768      H1772   1.084       .  S
O1769      H1774   0.991       .  S
O1771      H1775   0.992       .  S
C1777      C1778   1.402       .  A
C1777      C1782   1.400       .  A
C1777      H1787   1.084       .  S
C1778      C1783   1.476       .  S
C1778      C1779   1.407       .  A
C1779      C1780   1.399       .  A
C1779      O1784   1.373       .  S
C1780      C1781   1.403       .  A
C1780      H1785   1.084       .  S
C1781      C1782   1.409       .  A
C1782      O1786   1.372       .  S
C1783      C1788   1.405       .  A
C1783      C1792   1.402       .  A
O1784      H1800   0.992       .  S
O1786      H1797   0.992       .  S
C1788      C1789   1.394       .  A
C1788      O1793   1.372       .  S
C1789      C1790   1.406       .  A
C1789      H1794   1.083       .  S
C1790      C1791   1.414       .  A
C1791      C1792   1.402       .  A
C1791      O1795   1.372       .  S
C1792      H1796   1.084       .  S
O1793      H1798   0.992       .  S
O1795      H1799   0.992       .  S
C1801      C1802   1.396       .  A
C1801      C1806   1.395       .  A
C1801      H1811   1.084       .  S
C1802      C1807   1.462       .  S
C1802      C1803   1.407       .  A
C1803      C1804   1.392       .  A
C1803      O1808   1.373       .  S
C1804      C1805   1.400       .  A
C1804      H1809   1.084       .  S
C1805      C1806   1.413       .  A
C1806      O1810   1.372       .  S
C1807      C1812   1.407       .  A
C1807      C1816   1.396       .  A
O1808      H1824   0.993       .  S
O1810      H1821   0.992       .  S
C1812      C1813   1.395       .  A
C1812      O1817   1.372       .  S
C1813      C1814   1.400       .  A
C1813      H1818   1.084       .  S
C1814      C1815   1.412       .  A
C1815      C1816   1.392       .  A
C1815      O1819   1.372       .  S
C1816      H1820   1.084       .  S
O1817      H1822   0.992       .  S
O1819      H1823   0.992       .  S
C1825      C1826   1.403       .  A
C1825      C1830   1.393       .  A
C1825      H1835   1.084       .  S
C1826      C1831   1.469       .  S
C1826      C1827   1.402       .  A
C1827      C1828   1.397       .  A
C1827      O1832   1.374       .  S
C1828      C1829   1.409       .  A
C1828      H1833   1.083       .  S
C1829      C1830   1.409       .  A
C1830      O1834   1.371       .  S
C1831      C1836   1.409       .  A
C1831      C1840   1.401       .  A
O1832      H1848   0.992       .  S
O1834      H1845   0.992       .  S
C1836      C1837   1.391       .  A
C1836      O1841   1.372       .  S
C1837      C1838   1.401       .  A
C1837      H1842   1.084       .  S
C1838      C1839   1.413       .  A
C1839      C1840   1.397       .  A
C1839      O1843   1.372       .  S
C1840      H1844   1.084       .  S
O1841      H1846   0.992       .  S
O1843      H1847   0.992       .  S
C1849      C1850   1.403       .  A
C1849      C1854   1.393       .  A
C1849      H1859   1.083       .  S
C1850      C1855   1.481       .  S
C1850      C1851   1.410       .  A
C1851      C1852   1.401       .  A
C1851      O1856   1.371       .  S
C1852      C1853   1.405       .  A
C1852      H1857   1.083       .  S
C1853      C1854   1.409       .  A
C1854      O1858   1.372       .  S
C1855      C1860   1.409       .  A
C1855      C1864   1.404       .  A
O1856      H1872   0.992       .  S
O1858      H1869   0.992       .  S
C1860      C1861   1.398       .  A
C1860      O1865   1.373       .  S
C1861      C1862   1.403       .  A
C1861      H1866   1.084       .  S
C1862      C1863   1.410       .  A
C1863      C1864   1.398       .  A
C1863      O1867   1.372       .  S
C1864      H1868   1.083       .  S
O1865      H1870   0.992       .  S
O1867      H1871   0.992       .  S
C1873      C1874   1.411   1_556  A
C1873      C1878   1.419       .  A
C1873      H1883   1.083       .  S
C1874      C1879   1.521       .  S
C1874      C1875   1.414       .  A
C1875      C1876   1.414       .  A
C1875      O1880   1.371       .  S
C1876      C1877   1.412       .  A
C1876      H1881   1.083       .  S
C1877      C1878   1.418   1_554  A
C1878      O1882   1.371       .  S
C1879      C1884   1.416       .  A
C1879      C1888   1.408   1_554  A
O1880      H1896   0.992       .  S
O1882      H1893   0.991   1_556  S
C1884      C1885   1.420       .  A
C1884      O1889   1.371       .  S
C1885      C1886   1.412   1_554  A
C1885      H1890   1.083       .  S
C1886      C1887   1.417       .  A
C1887      C1888   1.412       .  A
C1887      O1891   1.371       .  S
C1888      H1892   1.083       .  S
O1889      H1894   0.992       .  S
O1891      H1895   0.992       .  S
C1897      C1898   1.399       .  A
C1897      C1902   1.393       .  A
C1897      H1907   1.084       .  S
C1898      C1903   1.469       .  S
C1898      C1899   1.402       .  A
C1899      C1900   1.400       .  A
C1899      O1904   1.371       .  S
C1900      C1901   1.409       .  A
C1900      H1905   1.083       .  S
C1901      C1902   1.415       .  A
C1902      O1906   1.372       .  S
C1903      C1908   1.406       .  A
C1903      C1912   1.401       .  A
O1904      H1920   0.992       .  S
O1906      H1917   0.992       .  S
C1908      C1909   1.399       .  A
C1908      O1913   1.372       .  S
C1909      C1910   1.402       .  A
C1909      H1914   1.084       .  S
C1910      C1911   1.407       .  A
C1911      C1912   1.394       .  A
C1911      O1915   1.372       .  S
C1912      H1916   1.084       .  S
O1913      H1918   0.992       .  S
O1915      H1919   0.992       .  S
C1921      C1922   1.402       .  A
C1921      C1926   1.398       .  A
C1921      H1931   1.084       .  S
C1922      C1927   1.470       .  S
C1922      C1923   1.406       .  A
C1923      C1924   1.396       .  A
C1923      O1928   1.373       .  S
C1924      C1925   1.402       .  A
C1924      H1929   1.084       .  S
C1925      C1926   1.405       .  A
C1926      O1930   1.371       .  S
C1927      C1932   1.404       .  A
C1927      C1936   1.399       .  A
O1928      H1944   0.992       .  S
O1930      H1941   0.991       .  S
C1932      C1933   1.394       .  A
C1932      O1937   1.373       .  S
C1933      C1934   1.407       .  A
C1933      H1938   1.083       .  S
C1934      C1935   1.414       .  A
C1935      C1936   1.399       .  A
C1935      O1939   1.371       .  S
C1936      H1940   1.084       .  S
O1937      H1942   0.992       .  S
O1939      H1943   0.992       .  S
C1945      C1946   1.409       .  A
C1945      C1950   1.415       .  A
C1945      H1955   1.083       .  S
C1946      C1951   1.519   1_554  S
C1946      C1947   1.415       .  A
C1947      C1948   1.414       .  A
C1947      O1952   1.371       .  S
C1948      C1949   1.411       .  A
C1948      H1953   1.083       .  S
C1949      C1950   1.420       .  A
C1950      O1954   1.371       .  S
C1951      C1956   1.416       .  A
C1951      C1960   1.409       .  A
O1952      H1968   0.992       .  S
O1954      H1965   0.992       .  S
C1956      C1957   1.416       .  A
C1956      O1961   1.371       .  S
C1957      C1958   1.411       .  A
C1957      H1962   1.083       .  S
C1958      C1959   1.417       .  A
C1959      C1960   1.413       .  A
C1959      O1963   1.371       .  S
C1960      H1964   1.083       .  S
O1961      H1966   0.992       .  S
O1963      H1967   0.992       .  S
C1969      C1970   1.396       .  A
C1969      C1974   1.395       .  A
C1969      H1979   1.084       .  S
C1970      C1975   1.464       .  S
C1970      C1971   1.408       .  A
C1971      C1972   1.391       .  A
C1971      O1976   1.373       .  S
C1972      C1973   1.402       .  A
C1972      H1977   1.084       .  S
C1973      C1974   1.416       .  A
C1974      O1978   1.372       .  S
C1975      C1980   1.402       .  A
C1975      C1984   1.401       .  A
O1976      H1992   0.992       .  S
O1978      H1989   0.992       .  S
C1980      C1981   1.391       .  A
C1980      O1985   1.372       .  S
C1981      C1982   1.408       .  A
C1981      H1986   1.083       .  S
C1982      C1983   1.411       .  A
C1983      C1984   1.395       .  A
C1983      O1987   1.372       .  S
C1984      H1988   1.084       .  S
O1985      H1990   0.992       .  S
O1987      H1991   0.992       .  S
C1993      C1994   1.403       .  A
C1993      C1998   1.399       .  A
C1993      H2003   1.084       .  S
C1994      C1999   1.460       .  S
C1994      C1995   1.400       .  A
C1995      C1996   1.388       .  A
C1995      O2000   1.372       .  S
C1996      C1997   1.407       .  A
C1996      H2001   1.084       .  S
C1997      C1998   1.408       .  A
C1998      O2002   1.372       .  S
C1999      C2004   1.400       .  A
C1999      C2008   1.402       .  A
O2000      H2016   0.991       .  S
O2002      H2013   0.992       .  S
C2004      C2005   1.397       .  A
C2004      O2009   1.371       .  S
C2005      C2006   1.408       .  A
C2005      H2010   1.084       .  S
C2006      C2007   1.404       .  A
C2007      C2008   1.388       .  A
C2007      O2011   1.372       .  S
C2008      H2012   1.084       .  S
O2009      H2014   0.991       .  S
O2011      H2015   0.992       .  S
C2017      C2018   1.407   1_554  A
C2017      C2022   1.407       .  A
C2017      H2027   1.083       .  S
C2018      C2023   1.505   1_556  S
C2018      C2019   1.413       .  A
C2019      C2020   1.408       .  A
C2019      O2024   1.372       .  S
C2020      C2021   1.408       .  A
C2020      H2025   1.083       .  S
C2021      C2022   1.417   1_556  A
C2022      O2026   1.371       .  S
C2023      C2028   1.415   1_554  A
C2023      C2032   1.407       .  A
O2024      H2040   0.992       .  S
O2026      H2037   0.992       .  S
C2028      C2029   1.409       .  A
C2028      O2033   1.371       .  S
C2029      C2030   1.406   1_556  A
C2029      H2034   1.083       .  S
C2030      C2031   1.414       .  A
C2031      C2032   1.405       .  A
C2031      O2035   1.372       .  S
C2032      H2036   1.083       .  S
O2033      H2038   0.992       .  S
O2035      H2039   0.992       .  S
C2041      C2042   1.404       .  A
C2041      C2046   1.393       .  A
C2041      H2051   1.083       .  S
C2042      C2047   1.467       .  S
C2042      C2043   1.402       .  A
C2043      C2044   1.391       .  A
C2043      O2048   1.372       .  S
C2044      C2045   1.408       .  A
C2044      H2049   1.084       .  S
C2045      C2046   1.408       .  A
C2046      O2050   1.372       .  S
C2047      C2052   1.403       .  A
C2047      C2056   1.405       .  A
O2048      H2064   0.992       .  S
O2050      H2061   0.992       .  S
C2052      C2053   1.392       .  A
C2052      O2057   1.374       .  S
C2053      C2054   1.405       .  A
C2053      H2058   1.084       .  S
C2054      C2055   1.405       .  A
C2055      C2056   1.394       .  A
C2055      O2059   1.371       .  S
C2056      H2060   1.084       .  S
O2057      H2062   0.992       .  S
O2059      H2063   0.992       .  S
C2065      C2066   1.405       .  A
C2065      C2070   1.396       .  A
C2065      H2075   1.083       .  S
C2066      C2071   1.475       .  S
C2066      C2067   1.411       .  A
C2067      C2068   1.390       .  A
C2067      O2072   1.372       .  S
C2068      C2069   1.399       .  A
C2068      H2073   1.084       .  S
C2069      C2070   1.406       .  A
C2070      O2074   1.372       .  S
C2071      C2076   1.410       .  A
C2071      C2080   1.405       .  A
O2072      H2088   0.992       .  S
O2074      H2085   0.992       .  S
C2076      C2077   1.389       .  A
C2076      O2081   1.372       .  S
C2077      C2078   1.401       .  A
C2077      H2082   1.084       .  S
C2078      C2079   1.409       .  A
C2079      C2080   1.398       .  A
C2079      O2083   1.371       .  S
C2080      H2084   1.084       .  S
O2081      H2086   0.992       .  S
O2083      H2087   0.992       .  S
C2089      C2090   1.409   1_554  A
C2089      C2094   1.413       .  A
C2089      H2099   1.083       .  S
C2090      C2095   1.510       .  S
C2090      C2091   1.413       .  A
C2091      C2092   1.409       .  A
C2091      O2096   1.371       .  S
C2092      C2093   1.409       .  A
C2092      H2097   1.083       .  S
C2093      C2094   1.416   1_556  A
C2094      O2098   1.371       .  S
C2095      C2100   1.413       .  A
C2095      C2104   1.405       .  A
O2096      H2112   0.992       .  S
O2098      H2109   0.992       .  S
C2100      C2101   1.414       .  A
C2100      O2105   1.371       .  S
C2101      C2102   1.412       .  A
C2101      H2106   1.083       .  S
C2102      C2103   1.420       .  A
C2103      C2104   1.409       .  A
C2103      O2107   1.371       .  S
C2104      H2108   1.083       .  S
O2105      H2110   0.992       .  S
O2107      H2111   0.992   1_556  S
C2113      C2114   1.399       .  A
C2113      C2118   1.401       .  A
C2113      H2123   1.084       .  S
C2114      C2119   1.472       .  S
C2114      C2115   1.404       .  A
C2115      C2116   1.396       .  A
C2115      O2120   1.372       .  S
C2116      C2117   1.406       .  A
C2116      H2121   1.083       .  S
C2117      C2118   1.416       .  A
C2118      O2122   1.372       .  S
C2119      C2124   1.404       .  A
C2119      C2128   1.400       .  A
O2120      H2136   0.992       .  S
O2122      H2133   0.991       .  S
C2124      C2125   1.399       .  A
C2124      O2129   1.371       .  S
C2125      C2126   1.407       .  A
C2125      H2130   1.083       .  S
C2126      C2127   1.412       .  A
C2127      C2128   1.399       .  A
C2127      O2131   1.372       .  S
C2128      H2132   1.084       .  S
O2129      H2134   0.992       .  S
O2131      H2135   0.992       .  S
C2137      C2138   1.399       .  A
C2137      C2142   1.393       .  A
C2137      H2147   1.084       .  S
C2138      C2143   1.474       .  S
C2138      C2139   1.405       .  A
C2139      C2140   1.405       .  A
C2139      O2144   1.371       .  S
C2140      C2141   1.408       .  A
C2140      H2145   1.083       .  S
C2141      C2142   1.413       .  A
C2142      O2146   1.372       .  S
C2143      C2148   1.406       .  A
C2143      C2152   1.400       .  A
O2144      H2160   0.991       .  S
O2146      H2157   0.992       .  S
C2148      C2149   1.402       .  A
C2148      O2153   1.372       .  S
C2149      C2150   1.405       .  A
C2149      H2154   1.083       .  S
C2150      C2151   1.412       .  A
C2151      C2152   1.396       .  A
C2151      O2155   1.372       .  S
C2152      H2156   1.084       .  S
O2153      H2158   0.992       .  S
O2155      H2159   0.992       .  S
C2161      C2162   1.408       .  A
C2161      C2166   1.415       .  A
C2161      H2171   1.083       .  S
C2162      C2167   1.497       .  S
C2162      C2163   1.407       .  A
C2163      C2164   1.404       .  A
C2163      O2168   1.371       .  S
C2164      C2165   1.408       .  A
C2164      H2169   1.084       .  S
C2165      C2166   1.413       .  A
C2166      O2170   1.371       .  S
C2167      C2172   1.412       .  A
C2167      C2176   1.400       .  A
O2168      H2184   0.992       .  S
O2170      H2181   0.992       .  S
C2172      C2173   1.416       .  A
C2172      O2177   1.371       .  S
C2173      C2174   1.410       .  A
C2173      H2178   1.083       .  S
C2174      C2175   1.416       .  A
C2175      C2176   1.402       .  A
C2175      O2179   1.372       .  S
C2176      H2180   1.084       .  S
O2177      H2182   0.991       .  S
O2179      H2183   0.992       .  S
C2185      C2186   1.415       .  A
C2185      C2190   1.416       .  A
C2185      H2195   1.081       .  S
C2186      C2191   1.533   1_565  S
C2186      C2187   1.421       .  A
C2187      C2188   1.416       .  A
C2187      O2192   1.371       .  S
C2188      C2189   1.410       .  A
C2188      H2193   1.083       .  S
C2189      C2190   1.413       .  A
C2190      O2194   1.371       .  S
C2191      C2196   1.420       .  A
C2191      C2200   1.415       .  A
O2192      H2208   0.991       .  S
O2194      H2205   0.992       .  S
C2196      C2197   1.416       .  A
C2196      O2201   1.372       .  S
C2197      C2198   1.409       .  A
C2197      H2202   1.083       .  S
C2198      C2199   1.416       .  A
C2199      C2200   1.418       .  A
C2199      O2203   1.371       .  S
C2200      H2204   1.082       .  S
O2201      H2206   0.992       .  S
O2203      H2207   0.991       .  S
C2209      C2210   1.404       .  A
C2209      C2214   1.394       .  A
C2209      H2219   1.084       .  S
C2210      C2215   1.467       .  S
C2210      C2211   1.401       .  A
C2211      C2212   1.392       .  A
C2211      O2216   1.372       .  S
C2212      C2213   1.409       .  A
C2212      H2217   1.083       .  S
C2213      C2214   1.408       .  A
C2214      O2218   1.372       .  S
C2215      C2220   1.402       .  A
C2215      C2224   1.402       .  A
O2216      H2232   0.992       .  S
O2218      H2229   0.992       .  S
C2220      C2221   1.394       .  A
C2220      O2225   1.373       .  S
C2221      C2222   1.407       .  A
C2221      H2226   1.084       .  S
C2222      C2223   1.410       .  A
C2223      C2224   1.395       .  A
C2223      O2227   1.372       .  S
C2224      H2228   1.084       .  S
O2225      H2230   0.992       .  S
O2227      H2231   0.992       .  S
C2233      C2234   1.401       .  A
C2233      C2238   1.397       .  A
C2233      H2243   1.084       .  S
C2234      C2239   1.469       .  S
C2234      C2235   1.410       .  A
C2235      C2236   1.391       .  A
C2235      O2240   1.372       .  S
C2236      C2237   1.397       .  A
C2236      H2241   1.084       .  S
C2237      C2238   1.410       .  A
C2238      O2242   1.372       .  S
C2239      C2244   1.402       .  A
C2239      C2248   1.406       .  A
O2240      H2256   0.992       .  S
O2242      H2253   0.992       .  S
C2244      C2245   1.395       .  A
C2244      O2249   1.374       .  S
C2245      C2246   1.404       .  A
C2245      H2250   1.084       .  S
C2246      C2247   1.405       .  A
C2247      C2248   1.397       .  A
C2247      O2251   1.371       .  S
C2248      H2252   1.084       .  S
O2249      H2254   0.992       .  S
O2251      H2255   0.992       .  S
C2257      C2258   1.401       .  A
C2257      C2262   1.393       .  A
C2257      H2267   1.084       .  S
C2258      C2263   1.477       .  S
C2258      C2259   1.407       .  A
C2259      C2260   1.402       .  A
C2259      O2264   1.373       .  S
C2260      C2261   1.407       .  A
C2260      H2265   1.083       .  S
C2261      C2262   1.411       .  A
C2262      O2266   1.372       .  S
C2263      C2268   1.407       .  A
C2263      C2272   1.404       .  A
O2264      H2280   0.992       .  S
O2266      H2277   0.992       .  S
C2268      C2269   1.397       .  A
C2268      O2273   1.371       .  S
C2269      C2270   1.406       .  A
C2269      H2274   1.084       .  S
C2270      C2271   1.408       .  A
C2271      C2272   1.396       .  A
C2271      O2275   1.372       .  S
C2272      H2276   1.084       .  S
O2273      H2278   0.992       .  S
O2275      H2279   0.992       .  S
C2281      C2282   1.403   1_565  A
C2281      C2286   1.402       .  A
C2281      H2291   1.084       .  S
C2282      C2287   1.502       .  S
C2282      C2283   1.414       .  A
C2283      C2284   1.416       .  A
C2283      O2288   1.372       .  S
C2284      C2285   1.408       .  A
C2284      H2289   1.083       .  S
C2285      C2286   1.416   1_545  A
C2286      O2290   1.372       .  S
C2287      C2292   1.410       .  A
C2287      C2296   1.407   1_545  A
O2288      H2304   0.992       .  S
O2290      H2301   0.992       .  S
C2292      C2293   1.409       .  A
C2292      O2297   1.371       .  S
C2293      C2294   1.412   1_545  A
C2293      H2298   1.083       .  S
C2294      C2295   1.415       .  A
C2295      C2296   1.408       .  A
C2295      O2299   1.371       .  S
C2296      H2300   1.084       .  S
O2297      H2302   0.992       .  S
O2299      H2303   0.992       .  S
C2305      C2306   1.402       .  A
C2305      C2310   1.391       .  A
C2305      H2315   1.084       .  S
C2306      C2311   1.461       .  S
C2306      C2307   1.399       .  A
C2307      C2308   1.396       .  A
C2307      O2312   1.372       .  S
C2308      C2309   1.408       .  A
C2308      H2313   1.084       .  S
C2309      C2310   1.406       .  A
C2310      O2314   1.372       .  S
C2311      C2316   1.408       .  A
C2311      C2320   1.397       .  A
O2312      H2328   0.992       .  S
O2314      H2325   0.992       .  S
C2316      C2317   1.397       .  A
C2316      O2321   1.373       .  S
C2317      C2318   1.401       .  A
C2317      H2322   1.084       .  S
C2318      C2319   1.409       .  A
C2319      C2320   1.391       .  A
C2319      O2323   1.372       .  S
C2320      H2324   1.084       .  S
O2321      H2326   0.992       .  S
O2323      H2327   0.991       .  S
C2329      C2330   1.405       .  A
C2329      C2334   1.394       .  A
C2329      H2339   1.084       .  S
C2330      C2335   1.465       .  S
C2330      C2331   1.402       .  A
C2331      C2332   1.393       .  A
C2331      O2336   1.371       .  S
C2332      C2333   1.406       .  A
C2332      H2337   1.084       .  S
C2333      C2334   1.404       .  A
C2334      O2338   1.372       .  S
C2335      C2340   1.400       .  A
C2335      C2344   1.405       .  A
O2336      H2352   0.991       .  S
O2338      H2349   0.992       .  S
C2340      C2341   1.394       .  A
C2340      O2345   1.373       .  S
C2341      C2342   1.409       .  A
C2341      H2346   1.084       .  S
C2342      C2343   1.407       .  A
C2343      C2344   1.393       .  A
C2343      O2347   1.371       .  S
C2344      H2348   1.084       .  S
O2345      H2350   0.992       .  S
O2347      H2351   0.992       .  S
C2353      C2354   1.399       .  A
C2353      C2358   1.393       .  A
C2353      H2363   1.084       .  S
C2354      C2359   1.475       .  S
C2354      C2355   1.407       .  A
C2355      C2356   1.406       .  A
C2355      O2360   1.371       .  S
C2356      C2357   1.407       .  A
C2356      H2361   1.083       .  S
C2357      C2358   1.411       .  A
C2358      O2362   1.372       .  S
C2359      C2364   1.405       .  A
C2359      C2368   1.400       .  A
O2360      H2376   0.991       .  S
O2362      H2373   0.992       .  S
C2364      C2365   1.404       .  A
C2364      O2369   1.371       .  S
C2365      C2366   1.408       .  A
C2365      H2370   1.083       .  S
C2366      C2367   1.412       .  A
C2367      C2368   1.397       .  A
C2367      O2371   1.372       .  S
C2368      H2372   1.084       .  S
O2369      H2374   0.992       .  S
O2371      H2375   0.992       .  S
C2377      C2378   1.408       .  A
C2377      C2382   1.414       .  A
C2377      H2387   1.083       .  S
C2378      C2383   1.521       .  S
C2378      C2379   1.416       .  A
C2379      C2380   1.419       .  A
C2379      O2384   1.372       .  S
C2380      C2381   1.412       .  A
C2380      H2385   1.083       .  S
C2381      C2382   1.420       .  A
C2382      O2386   1.371       .  S
C2383      C2388   1.414   1_565  A
C2383      C2392   1.410       .  A
O2384      H2400   0.992   1_565  S
O2386      H2397   0.992       .  S
C2388      C2389   1.417       .  A
C2388      O2393   1.372       .  S
C2389      C2390   1.413   1_545  A
C2389      H2394   1.083       .  S
C2390      C2391   1.419       .  A
C2391      C2392   1.416       .  A
C2391      O2395   1.371       .  S
C2392      H2396   1.083       .  S
O2393      H2398   0.991       .  S
O2395      H2399   0.992       .  S
C2401      C2402   1.400       .  A
C2401      C2406   1.402       .  A
C2401      H2411   1.083       .  S
C2402      C2407   1.471       .  S
C2402      C2403   1.404       .  A
C2403      C2404   1.396       .  A
C2403      O2408   1.373       .  S
C2404      C2405   1.407       .  A
C2404      H2409   1.084       .  S
C2405      C2406   1.413       .  A
C2406      O2410   1.371       .  S
C2407      C2412   1.405       .  A
C2407      C2416   1.402       .  A
O2408      H2424   0.992       .  S
O2410      H2421   0.992       .  S
C2412      C2413   1.394       .  A
C2412      O2417   1.373       .  S
C2413      C2414   1.401       .  A
C2413      H2418   1.084       .  S
C2414      C2415   1.409       .  A
C2415      C2416   1.403       .  A
C2415      O2419   1.372       .  S
C2416      H2420   1.083       .  S
O2417      H2422   0.992       .  S
O2419      H2423   0.992       .  S
C2425      C2426   1.402       .  A
C2425      C2430   1.402       .  A
C2425      H2435   1.083       .  S
C2426      C2431   1.477       .  S
C2426      C2427   1.405       .  A
C2427      C2428   1.395       .  A
C2427      O2432   1.372       .  S
C2428      C2429   1.406       .  A
C2428      H2433   1.083       .  S
C2429      C2430   1.415       .  A
C2430      O2434   1.372       .  S
C2431      C2436   1.404       .  A
C2431      C2440   1.401       .  A
O2432      H2448   0.992       .  S
O2434      H2445   0.992       .  S
C2436      C2437   1.402       .  A
C2436      O2441   1.371       .  S
C2437      C2438   1.409       .  A
C2437      H2442   1.083       .  S
C2438      C2439   1.414       .  A
C2439      C2440   1.397       .  A
C2439      O2443   1.371       .  S
C2440      H2444   1.084       .  S
O2441      H2446   0.992       .  S
O2443      H2447   0.992       .  S
C2449      C2450   1.406       .  A
C2449      C2454   1.406       .  A
C2449      H2459   1.084       .  S
C2450      C2455   1.505       .  S
C2450      C2451   1.413       .  A
C2451      C2452   1.411       .  A
C2451      O2456   1.372       .  S
C2452      C2453   1.409       .  A
C2452      H2457   1.083       .  S
C2453      C2454   1.416       .  A
C2454      O2458   1.371       .  S
C2455      C2460   1.415       .  A
C2455      C2464   1.405       .  A
O2456      H2472   0.992       .  S
O2458      H2469   0.992       .  S
C2460      C2461   1.413       .  A
C2460      O2465   1.371       .  S
C2461      C2462   1.409       .  A
C2461      H2466   1.083       .  S
C2462      C2463   1.415       .  A
C2463      C2464   1.403       .  A
C2463      O2467   1.372       .  S
C2464      H2468   1.084       .  S
O2465      H2470   0.992       .  S
O2467      H2471   0.992       .  S
C2473      C2474   1.408       .  A
C2473      C2478   1.416       .  A
C2473      H2483   1.083       .  S
C2474      C2479   1.508   1_545  S
C2474      C2475   1.409       .  A
C2475      C2476   1.411       .  A
C2475      O2480   1.371       .  S
C2476      C2477   1.413       .  A
C2476      H2481   1.083       .  S
C2477      C2478   1.418       .  A
C2478      O2482   1.371       .  S
C2479      C2484   1.411       .  A
C2479      C2488   1.405       .  A
O2480      H2496   0.991       .  S
O2482      H2493   0.992       .  S
C2484      C2485   1.415       .  A
C2484      O2489   1.371       .  S
C2485      C2486   1.413       .  A
C2485      H2490   1.083       .  S
C2486      C2487   1.421       .  A
C2487      C2488   1.414       .  A
C2487      O2491   1.371       .  S
C2488      H2492   1.083       .  S
O2489      H2494   0.991       .  S
O2491      H2495   0.992       .  S
C2497      C2498   1.401       .  A
C2497      C2502   1.394       .  A
C2497      H2507   1.084       .  S
C2498      C2503   1.465       .  S
C2498      C2499   1.400       .  A
C2499      C2500   1.397       .  A
C2499      O2504   1.371       .  S
C2500      C2501   1.410       .  A
C2500      H2505   1.083       .  S
C2501      C2502   1.409       .  A
C2502      O2506   1.372       .  S
C2503      C2508   1.401       .  A
C2503      C2512   1.402       .  A
O2504      H2520   0.992       .  S
O2506      H2517   0.992       .  S
C2508      C2509   1.394       .  A
C2508      O2513   1.372       .  S
C2509      C2510   1.407       .  A
C2509      H2514   1.084       .  S
C2510      C2511   1.408       .  A
C2511      C2512   1.396       .  A
C2511      O2515   1.371       .  S
C2512      H2516   1.084       .  S
O2513      H2518   0.992       .  S
O2515      H2519   0.992       .  S
C2521      C2522   1.404       .  A
C2521      C2526   1.397       .  A
C2521      H2531   1.083       .  S
C2522      C2527   1.480       .  S
C2522      C2523   1.413       .  A
C2523      C2524   1.390       .  A
C2523      O2528   1.372       .  S
C2524      C2525   1.400       .  A
C2524      H2529   1.084       .  S
C2525      C2526   1.411       .  A
C2526      O2530   1.372       .  S
C2527      C2532   1.412       .  A
C2527      C2536   1.406       .  A
O2528      H2544   0.992       .  S
O2530      H2541   0.992       .  S
C2532      C2533   1.391       .  A
C2532      O2537   1.372       .  S
C2533      C2534   1.400       .  A
C2533      H2538   1.084       .  S
C2534      C2535   1.407       .  A
C2535      C2536   1.396       .  A
C2535      O2539   1.372       .  S
C2536      H2540   1.084       .  S
O2537      H2542   0.992       .  S
O2539      H2543   0.992       .  S
C2545      C2546   1.400       .  A
C2545      C2550   1.396       .  A
C2545      H2555   1.084       .  S
C2546      C2551   1.473       .  S
C2546      C2547   1.406       .  A
C2547      C2548   1.404       .  A
C2547      O2552   1.371       .  S
C2548      C2549   1.406       .  A
C2548      H2553   1.083       .  S
C2549      C2550   1.410       .  A
C2550      O2554   1.373       .  S
C2551      C2556   1.405       .  A
C2551      C2560   1.399       .  A
O2552      H2568   0.991       .  S
O2554      H2565   0.992       .  S
C2556      C2557   1.403       .  A
C2556      O2561   1.371       .  S
C2557      C2558   1.408       .  A
C2557      H2562   1.083       .  S
C2558      C2559   1.413       .  A
C2559      C2560   1.397       .  A
C2559      O2563   1.373       .  S
C2560      H2564   1.084       .  S
O2561      H2566   0.992       .  S
O2563      H2567   0.992       .  S
C2569      C2570   1.411   1_545  A
C2569      C2574   1.420       .  A
C2569      H2579   1.083       .  S
C2570      C2575   1.507   1_565  S
C2570      C2571   1.408       .  A
C2571      C2572   1.406       .  A
C2571      O2576   1.372       .  S
C2572      C2573   1.408       .  A
C2572      H2577   1.084       .  S
C2573      C2574   1.413   1_565  A
C2574      O2578   1.370       .  S
C2575      C2580   1.408       .  A
C2575      C2584   1.410   1_545  A
O2576      H2592   0.992       .  S
O2578      H2589   0.991       .  S
C2580      C2581   1.405       .  A
C2580      O2585   1.372       .  S
C2581      C2582   1.412       .  A
C2581      H2586   1.083       .  S
C2582      C2583   1.418   1_545  A
C2583      C2584   1.420       .  A
C2583      O2587   1.371       .  S
C2584      H2588   1.083       .  S
O2585      H2590   0.992       .  S
O2587      H2591   0.991       .  S
C2593      C2594   1.398       .  A
C2593      C2598   1.394       .  A
C2593      H2603   1.084       .  S
C2594      C2599   1.468       .  S
C2594      C2595   1.408       .  A
C2595      C2596   1.398       .  A
C2595      O2600   1.371       .  S
C2596      C2597   1.403       .  A
C2596      H2601   1.083       .  S
C2597      C2598   1.413       .  A
C2598      O2602   1.373       .  S
C2599      C2604   1.403       .  A
C2599      C2608   1.402       .  A
O2600      H2616   0.992       .  S
O2602      H2613   0.993       .  S
C2604      C2605   1.399       .  A
C2604      O2609   1.371       .  S
C2605      C2606   1.409       .  A
C2605      H2610   1.084       .  S
C2606      C2607   1.404       .  A
C2607      C2608   1.391       .  A
C2607      O2611   1.372       .  S
C2608      H2612   1.084       .  S
O2609      H2614   0.992       .  S
O2611      H2615   0.992       .  S
C2617      C2618   1.392       .  A
C2617      C2622   1.394       .  A
C2617      H2627   1.084       .  S
C2618      C2623   1.456       .  S
C2618      C2619   1.404       .  A
C2619      C2620   1.392       .  A
C2619      O2624   1.373       .  S
C2620      C2621   1.403       .  A
C2620      H2625   1.083       .  S
C2621      C2622   1.418       .  A
C2622      O2626   1.373       .  S
C2623      C2628   1.408       .  A
C2623      C2632   1.396       .  A
O2624      H2640   0.992       .  S
O2626      H2637   0.992       .  S
C2628      C2629   1.393       .  A
C2628      O2633   1.373       .  S
C2629      C2630   1.397       .  A
C2629      H2634   1.084       .  S
C2630      C2631   1.408       .  A
C2631      C2632   1.392       .  A
C2631      O2635   1.372       .  S
C2632      H2636   1.084       .  S
O2633      H2638   0.992       .  S
O2635      H2639   0.992       .  S
C2641      C2642   1.402       .  A
C2641      C2646   1.403       .  A
C2641      H2651   1.083       .  S
C2642      C2647   1.474       .  S
C2642      C2643   1.405       .  A
C2643      C2644   1.394       .  A
C2643      O2648   1.373       .  S
C2644      C2645   1.404       .  A
C2644      H2649   1.084       .  S
C2645      C2646   1.411       .  A
C2646      O2650   1.371       .  S
C2647      C2652   1.406       .  A
C2647      C2656   1.401       .  A
O2648      H2664   0.992       .  S
O2650      H2661   0.992       .  S
C2652      C2653   1.394       .  A
C2652      O2657   1.372       .  S
C2653      C2654   1.404       .  A
C2653      H2658   1.084       .  S
C2654      C2655   1.414       .  A
C2655      C2656   1.402       .  A
C2655      O2659   1.371       .  S
C2656      H2660   1.084       .  S
O2657      H2662   0.992       .  S
O2659      H2663   0.992       .  S
C2665      C2666   1.414   1_565  A
C2665      C2670   1.416       .  A
C2665      H2675   1.082       .  S
C2666      C2671   1.534       .  S
C2666      C2667   1.421       .  A
C2667      C2668   1.417       .  A
C2667      O2672   1.371       .  S
C2668      C2669   1.410       .  A
C2668      H2673   1.083       .  S
C2669      C2670   1.417   1_545  A
C2670      O2674   1.372       .  S
C2671      C2676   1.421   1_545  A
C2671      C2680   1.414       .  A
O2672      H2688   0.992       .  S
O2674      H2685   0.992       .  S
C2676      C2677   1.418       .  A
C2676      O2681   1.371       .  S
C2677      C2678   1.411   1_565  A
C2677      H2682   1.083       .  S
C2678      C2679   1.416       .  A
C2679      C2680   1.417       .  A
C2679      O2683   1.371       .  S
C2680      H2684   1.082       .  S
O2681      H2686   0.992       .  S
O2683      H2687   0.992       .  S
C2689      C2690   1.403       .  A
C2689      C2694   1.397       .  A
C2689      H2699   1.083       .  S
C2690      C2695   1.485       .  S
C2690      C2691   1.411       .  A
C2691      C2692   1.404       .  A
C2691      O2696   1.372       .  S
C2692      C2693   1.403       .  A
C2692      H2697   1.084       .  S
C2693      C2694   1.406       .  A
C2694      O2698   1.372       .  S
C2695      C2700   1.408       .  A
C2695      C2704   1.404       .  A
O2696      H2712   0.992       .  S
O2698      H2709   0.992       .  S
C2700      C2701   1.396       .  A
C2700      O2705   1.373       .  S
C2701      C2702   1.405       .  A
C2701      H2706   1.083       .  S
C2702      C2703   1.415       .  A
C2703      C2704   1.405       .  A
C2703      O2707   1.371       .  S
C2704      H2708   1.083       .  S
O2705      H2710   0.992       .  S
O2707      H2711   0.992       .  S
C2713      C2714   1.404       .  A
C2713      C2718   1.405       .  A
C2713      H2723   1.084       .  S
C2714      C2719   1.509       .  S
C2714      C2715   1.414       .  A
C2715      C2716   1.419       .  A
C2715      O2720   1.371       .  S
C2716      C2717   1.412       .  A
C2716      H2721   1.083       .  S
C2717      C2718   1.416       .  A
C2718      O2722   1.372       .  S
C2719      C2724   1.409       .  A
C2719      C2728   1.412       .  A
O2720      H2736   0.992       .  S
O2722      H2733   0.992       .  S
C2724      C2725   1.403       .  A
C2724      O2729   1.372       .  S
C2725      C2726   1.410       .  A
C2725      H2730   1.083       .  S
C2726      C2727   1.416       .  A
C2727      C2728   1.421       .  A
C2727      O2731   1.371       .  S
C2728      H2732   1.083       .  S
O2729      H2734   0.992       .  S
O2731      H2735   0.992       .  S
C2737      C2738   1.402       .  A
C2737      C2742   1.400       .  A
C2737      H2747   1.083       .  S
C2738      C2743   1.486       .  S
C2738      C2739   1.409       .  A
C2739      C2740   1.401       .  A
C2739      O2744   1.372       .  S
C2740      C2741   1.408       .  A
C2740      H2745   1.083       .  S
C2741      C2742   1.415       .  A
C2742      O2746   1.372       .  S
C2743      C2748   1.410       .  A
C2743      C2752   1.404       .  A
O2744      H2760   0.992       .  S
O2746      H2757   0.992       .  S
C2748      C2749   1.403       .  A
C2748      O2753   1.372       .  S
C2749      C2750   1.403       .  A
C2749      H2754   1.084       .  S
C2750      C2751   1.410       .  A
C2751      C2752   1.400       .  A
C2751      O2755   1.372       .  S
C2752      H2756   1.084       .  S
O2753      H2758   0.991       .  S
O2755      H2759   0.992       .  S
C2761      C2762   1.409       .  A
C2761      C2766   1.412       .  A
C2761      H2771   1.083       .  S
C2762      C2767   1.517       .  S
C2762      C2763   1.416       .  A
C2763      C2764   1.415       .  A
C2763      O2768   1.373       .  S
C2764      C2765   1.409       .  A
C2764      H2769   1.083       .  S
C2765      C2766   1.416       .  A
C2766      O2770   1.371       .  S
C2767      C2772   1.414       .  A
C2767      C2776   1.411       .  A
O2768      H2784   0.992       .  S
O2770      H2781   0.992       .  S
C2772      C2773   1.409       .  A
C2772      O2777   1.371       .  S
C2773      C2774   1.410       .  A
C2773      H2778   1.083       .  S
C2774      C2775   1.416       .  A
C2775      C2776   1.415       .  A
C2775      O2779   1.371       .  S
C2776      H2780   1.083       .  S
O2777      H2782   0.992       .  S
O2779      H2783   0.992       .  S
C2785      C2786   1.407       .  A
C2785      C2790   1.412       .  A
C2785      H2795   1.083       .  S
C2786      C2791   1.513   1_455  S
C2786      C2787   1.413       .  A
C2787      C2788   1.414       .  A
C2787      O2792   1.371       .  S
C2788      C2789   1.412       .  A
C2788      H2793   1.083       .  S
C2789      C2790   1.419       .  A
C2790      O2794   1.371       .  S
C2791      C2796   1.412       .  A
C2791      C2800   1.408       .  A
O2792      H2808   0.992       .  S
O2794      H2805   0.992       .  S
C2796      C2797   1.414       .  A
C2796      O2801   1.372       .  S
C2797      C2798   1.412       .  A
C2797      H2802   1.083       .  S
C2798      C2799   1.419       .  A
C2799      C2800   1.413       .  A
C2799      O2803   1.371       .  S
C2800      H2804   1.083       .  S
O2801      H2806   0.992       .  S
O2803      H2807   0.992       .  S
C2809      C2810   1.400       .  A
C2809      C2814   1.397       .  A
C2809      H2819   1.084       .  S
C2810      C2815   1.469       .  S
C2810      C2811   1.408       .  A
C2811      C2812   1.391       .  A
C2811      O2816   1.373       .  S
C2812      C2813   1.403       .  A
C2812      H2817   1.083       .  S
C2813      C2814   1.415       .  A
C2814      O2818   1.371       .  S
C2815      C2820   1.403       .  A
C2815      C2824   1.401       .  A
O2816      H2832   0.991       .  S
O2818      H2829   0.992       .  S
C2820      C2821   1.394       .  A
C2820      O2825   1.371       .  S
C2821      C2822   1.408       .  A
C2821      H2826   1.083       .  S
C2822      C2823   1.411       .  A
C2823      C2824   1.394       .  A
C2823      O2827   1.371       .  S
C2824      H2828   1.084       .  S
O2825      H2830   0.992       .  S
O2827      H2831   0.992       .  S
C2833      C2834   1.405       .  A
C2833      C2838   1.394       .  A
C2833      H2843   1.083       .  S
C2834      C2839   1.468       .  S
C2834      C2835   1.405       .  A
C2835      C2836   1.391       .  A
C2835      O2840   1.372       .  S
C2836      C2837   1.402       .  A
C2836      H2841   1.084       .  S
C2837      C2838   1.404       .  A
C2838      O2842   1.372       .  S
C2839      C2844   1.401       .  A
C2839      C2848   1.403       .  A
O2840      H2856   0.991       .  S
O2842      H2853   0.992       .  S
C2844      C2845   1.395       .  A
C2844      O2849   1.373       .  S
C2845      C2846   1.410       .  A
C2845      H2850   1.083       .  S
C2846      C2847   1.409       .  A
C2847      C2848   1.393       .  A
C2847      O2851   1.372       .  S
C2848      H2852   1.084       .  S
O2849      H2854   0.992       .  S
O2851      H2855   0.993       .  S
C2857      C2858   1.400       .  A
C2857      C2862   1.400       .  A
C2857      H2867   1.084       .  S
C2858      C2863   1.469       .  S
C2858      C2859   1.404       .  A
C2859      C2860   1.394       .  A
C2859      O2864   1.372       .  S
C2860      C2861   1.405       .  A
C2860      H2865   1.084       .  S
C2861      C2862   1.413       .  A
C2862      O2866   1.371       .  S
C2863      C2868   1.405       .  A
C2863      C2872   1.403       .  A
O2864      H2880   0.992       .  S
O2866      H2877   0.991       .  S
C2868      C2869   1.394       .  A
C2868      O2873   1.372       .  S
C2869      C2870   1.401       .  A
C2869      H2874   1.084       .  S
C2870      C2871   1.407       .  A
C2871      C2872   1.401       .  A
C2871      O2875   1.372       .  S
C2872      H2876   1.084       .  S
O2873      H2878   0.992       .  S
O2875      H2879   0.992       .  S
C2881      C2882   1.401       .  A
C2881      C2886   1.394       .  A
C2881      H2891   1.084       .  S
C2882      C2887   1.486       .  S
C2882      C2883   1.410       .  A
C2883      C2884   1.408       .  A
C2883      O2888   1.372       .  S
C2884      C2885   1.408       .  A
C2884      H2889   1.083       .  S
C2885      C2886   1.413       .  A
C2886      O2890   1.372       .  S
C2887      C2892   1.408       .  A
C2887      C2896   1.405       .  A
O2888      H2904   0.992       .  S
O2890      H2901   0.992       .  S
C2892      C2893   1.404       .  A
C2892      O2897   1.371       .  S
C2893      C2894   1.410       .  A
C2893      H2898   1.083       .  S
C2894      C2895   1.409       .  A
C2895      C2896   1.398       .  A
C2895      O2899   1.371       .  S
C2896      H2900   1.084       .  S
O2897      H2902   0.992       .  S
O2899      H2903   0.992       .  S
C2905      C2906   1.405       .  A
C2905      C2910   1.404       .  A
C2905      H2915   1.083       .  S
C2906      C2911   1.501       .  S
C2906      C2907   1.413   1_455  A
C2907      C2908   1.410       .  A
C2907      O2912   1.371       .  S
C2908      C2909   1.407   1_655  A
C2908      H2913   1.083       .  S
C2909      C2910   1.413       .  A
C2910      O2914   1.372       .  S
C2911      C2916   1.411       .  A
C2911      C2920   1.406   1_455  A
O2912      H2928   0.991       .  S
O2914      H2925   0.992       .  S
C2916      C2917   1.407       .  A
C2916      O2921   1.371       .  S
C2917      C2918   1.409   1_455  A
C2917      H2922   1.083       .  S
C2918      C2919   1.416       .  A
C2919      C2920   1.408       .  A
C2919      O2923   1.372       .  S
C2920      H2924   1.083       .  S
O2921      H2926   0.991       .  S
O2923      H2927   0.992       .  S
C2929      C2930   1.405       .  A
C2929      C2934   1.398       .  A
C2929      H2939   1.084       .  S
C2930      C2935   1.466       .  S
C2930      C2931   1.403       .  A
C2931      C2932   1.391       .  A
C2931      O2936   1.371       .  S
C2932      C2933   1.403       .  A
C2932      H2937   1.084       .  S
C2933      C2934   1.404       .  A
C2934      O2938   1.371       .  S
C2935      C2940   1.402       .  A
C2935      C2944   1.404       .  A
O2936      H2952   0.991       .  S
O2938      H2949   0.991       .  S
C2940      C2941   1.398       .  A
C2940      O2945   1.372       .  S
C2941      C2942   1.406       .  A
C2941      H2946   1.084       .  S
C2942      C2943   1.404       .  A
C2943      C2944   1.392       .  A
C2943      O2947   1.372       .  S
C2944      H2948   1.084       .  S
O2945      H2950   0.992       .  S
O2947      H2951   0.992       .  S
C2953      C2954   1.402       .  A
C2953      C2958   1.393       .  A
C2953      H2963   1.084       .  S
C2954      C2959   1.465       .  S
C2954      C2955   1.399       .  A
C2955      C2956   1.396       .  A
C2955      O2960   1.372       .  S
C2956      C2957   1.410       .  A
C2956      H2961   1.084       .  S
C2957      C2958   1.408       .  A
C2958      O2962   1.372       .  S
C2959      C2964   1.411       .  A
C2959      C2968   1.397       .  A
O2960      H2976   0.992       .  S
O2962      H2973   0.992       .  S
C2964      C2965   1.397       .  A
C2964      O2969   1.373       .  S
C2965      C2966   1.399       .  A
C2965      H2970   1.084       .  S
C2966      C2967   1.409       .  A
C2967      C2968   1.391       .  A
C2967      O2971   1.372       .  S
C2968      H2972   1.084       .  S
O2969      H2974   0.992       .  S
O2971      H2975   0.992       .  S
C2977      C2978   1.405       .  A
C2977      C2982   1.405       .  A
C2977      H2987   1.083       .  S
C2978      C2983   1.475       .  S
C2978      C2979   1.406       .  A
C2979      C2980   1.394       .  A
C2979      O2984   1.372       .  S
C2980      C2981   1.400       .  A
C2980      H2985   1.084       .  S
C2981      C2982   1.407       .  A
C2982      O2986   1.371       .  S
C2983      C2988   1.406       .  A
C2983      C2992   1.400       .  A
O2984      H3000   0.992       .  S
O2986      H2997   0.992       .  S
C2988      C2989   1.400       .  A
C2988      O2993   1.371       .  S
C2989      C2990   1.405       .  A
C2989      H2994   1.083       .  S
C2990      C2991   1.411       .  A
C2991      C2992   1.399       .  A
C2991      O2995   1.372       .  S
C2992      H2996   1.084       .  S
O2993      H2998   0.992       .  S
O2995      H2999   0.992       .  S
C3001      C3002   1.403       .  A
C3001      C3006   1.402       .  A
C3001      H3011   1.084       .  S
C3002      C3007   1.481       .  S
C3002      C3003   1.407       .  A
C3003      C3004   1.398       .  A
C3003      O3008   1.374       .  S
C3004      C3005   1.404       .  A
C3004      H3009   1.084       .  S
C3005      C3006   1.412       .  A
C3006      O3010   1.372       .  S
C3007      C3012   1.406       .  A
C3007      C3016   1.405       .  A
O3008      H3024   0.992       .  S
O3010      H3021   0.992       .  S
C3012      C3013   1.395       .  A
C3012      O3017   1.374       .  S
C3013      C3014   1.405       .  A
C3013      H3018   1.084       .  S
C3014      C3015   1.410       .  A
C3015      C3016   1.404       .  A
C3015      O3019   1.371       .  S
C3016      H3020   1.083       .  S
O3017      H3022   0.992       .  S
O3019      H3023   0.992       .  S
C3025      C3026   1.408       .  A
C3025      C3030   1.413       .  A
C3025      H3035   1.083       .  S
C3026      C3031   1.517       .  S
C3026      C3027   1.415   1_655  A
C3027      C3028   1.414       .  A
C3027      O3032   1.371       .  S
C3028      C3029   1.412   1_455  A
C3028      H3033   1.083       .  S
C3029      C3030   1.419       .  A
C3030      O3034   1.371       .  S
C3031      C3036   1.415       .  A
C3031      C3040   1.408   1_655  A
O3032      H3048   0.992       .  S
O3034      H3045   0.992       .  S
C3036      C3037   1.416       .  A
C3036      O3041   1.372       .  S
C3037      C3038   1.412       .  A
C3037      H3042   1.083       .  S
C3038      C3039   1.419   1_655  A
C3039      C3040   1.412       .  A
C3039      O3043   1.371       .  S
C3040      H3044   1.083       .  S
O3041      H3046   0.992       .  S
O3043      H3047   0.992       .  S
C3049      C3050   1.399       .  A
C3049      C3054   1.395       .  A
C3049      H3059   1.084       .  S
C3050      C3055   1.474       .  S
C3050      C3051   1.405       .  A
C3051      C3052   1.404       .  A
C3051      O3056   1.371       .  S
C3052      C3053   1.408       .  A
C3052      H3057   1.083       .  S
C3053      C3054   1.414       .  A
C3054      O3058   1.372       .  S
C3055      C3060   1.407       .  A
C3055      C3064   1.400       .  A
O3056      H3072   0.992       .  S
O3058      H3069   0.992       .  S
C3060      C3061   1.403       .  A
C3060      O3065   1.371       .  S
C3061      C3062   1.404       .  A
C3061      H3066   1.083       .  S
C3062      C3063   1.411       .  A
C3063      C3064   1.396       .  A
C3063      O3067   1.372       .  S
C3064      H3068   1.084       .  S
O3065      H3070   0.992       .  S
O3067      H3071   0.992       .  S
C3073      C3074   1.400       .  A
C3073      C3078   1.400       .  A
C3073      H3083   1.084       .  S
C3074      C3079   1.470       .  S
C3074      C3075   1.403       .  A
C3075      C3076   1.394       .  A
C3075      O3080   1.373       .  S
C3076      C3077   1.407       .  A
C3076      H3081   1.083       .  S
C3077      C3078   1.414       .  A
C3078      O3082   1.371       .  S
C3079      C3084   1.404       .  A
C3079      C3088   1.401       .  A
O3080      H3096   0.992       .  S
O3082      H3093   0.992       .  S
C3084      C3085   1.392       .  A
C3084      O3089   1.372       .  S
C3085      C3086   1.406       .  A
C3085      H3090   1.084       .  S
C3086      C3087   1.413       .  A
C3087      C3088   1.401       .  A
C3087      O3091   1.371       .  S
C3088      H3092   1.084       .  S
O3089      H3094   0.992       .  S
O3091      H3095   0.992       .  S
C3097      C3098   1.408       .  A
C3097      C3102   1.409       .  A
C3097      H3107   1.083       .  S
C3098      C3103   1.508       .  S
C3098      C3099   1.413       .  A
C3099      C3100   1.412       .  A
C3099      O3104   1.372       .  S
C3100      C3101   1.411       .  A
C3100      H3105   1.083       .  S
C3101      C3102   1.415       .  A
C3102      O3106   1.371       .  S
C3103      C3108   1.417       .  A
C3103      C3112   1.405       .  A
O3104      H3120   0.992       .  S
O3106      H3117   0.992       .  S
C3108      C3109   1.415       .  A
C3108      O3113   1.371       .  S
C3109      C3110   1.407       .  A
C3109      H3114   1.083       .  S
C3110      C3111   1.413       .  A
C3111      C3112   1.404       .  A
C3111      O3115   1.372       .  S
C3112      H3116   1.084       .  S
O3113      H3118   0.992       .  S
O3115      H3119   0.992       .  S
C3121      C3122   1.409       .  A
C3121      C3126   1.415       .  A
C3121      H3131   1.083       .  S
C3122      C3127   1.520   1_554  S
C3122      C3123   1.414       .  A
C3123      C3124   1.415       .  A
C3123      O3128   1.371       .  S
C3124      C3125   1.413       .  A
C3124      H3129   1.083       .  S
C3125      C3126   1.418       .  A
C3126      O3130   1.371       .  S
C3127      C3132   1.415       .  A
C3127      C3136   1.411       .  A
O3128      H3144   0.992       .  S
O3130      H3141   0.992       .  S
C3132      C3133   1.416       .  A
C3132      O3137   1.372       .  S
C3133      C3134   1.410       .  A
C3133      H3138   1.083       .  S
C3134      C3135   1.416       .  A
C3135      C3136   1.415       .  A
C3135      O3139   1.371       .  S
C3136      H3140   1.083       .  S
O3137      H3142   0.992       .  S
O3139      H3143   0.992       .  S
C3145      C3146   1.397       .  A
C3145      C3150   1.394       .  A
C3145      H3155   1.084       .  S
C3146      C3151   1.461       .  S
C3146      C3147   1.407       .  A
C3147      C3148   1.392       .  A
C3147      O3152   1.372       .  S
C3148      C3149   1.399       .  A
C3148      H3153   1.084       .  S
C3149      C3150   1.413       .  A
C3150      O3154   1.372       .  S
C3151      C3156   1.401       .  A
C3151      C3160   1.400       .  A
O3152      H3168   0.991       .  S
O3154      H3165   0.992       .  S
C3156      C3157   1.394       .  A
C3156      O3161   1.371       .  S
C3157      C3158   1.407       .  A
C3157      H3162   1.083       .  S
C3158      C3159   1.410       .  A
C3159      C3160   1.393       .  A
C3159      O3163   1.373       .  S
C3160      H3164   1.084       .  S
O3161      H3166   0.992       .  S
O3163      H3167   0.992       .  S
C3169      C3170   1.403       .  A
C3169      C3174   1.394       .  A
C3169      H3179   1.084       .  S
C3170      C3175   1.463       .  S
C3170      C3171   1.399       .  A
C3171      C3172   1.393       .  A
C3171      O3176   1.371       .  S
C3172      C3173   1.410       .  A
C3172      H3177   1.083       .  S
C3173      C3174   1.408       .  A
C3174      O3178   1.372       .  S
C3175      C3180   1.400       .  A
C3175      C3184   1.404       .  A
O3176      H3192   0.992       .  S
O3178      H3189   0.992       .  S
C3180      C3181   1.392       .  A
C3180      O3185   1.373       .  S
C3181      C3182   1.408       .  A
C3181      H3186   1.084       .  S
C3182      C3183   1.407       .  A
C3183      C3184   1.395       .  A
C3183      O3187   1.372       .  S
C3184      H3188   1.084       .  S
O3185      H3190   0.992       .  S
O3187      H3191   0.992       .  S
C3193      C3194   1.401       .  A
C3193      C3198   1.399       .  A
C3193      H3203   1.084       .  S
C3194      C3199   1.475       .  S
C3194      C3195   1.405       .  A
C3195      C3196   1.399       .  A
C3195      O3200   1.372       .  S
C3196      C3197   1.406       .  A
C3196      H3201   1.084       .  S
C3197      C3198   1.413       .  A
C3198      O3202   1.372       .  S
C3199      C3204   1.405       .  A
C3199      C3208   1.403       .  A
O3200      H3216   0.992       .  S
O3202      H3213   0.992       .  S
C3204      C3205   1.395       .  A
C3204      O3209   1.372       .  S
C3205      C3206   1.404       .  A
C3205      H3210   1.084       .  S
C3206      C3207   1.412       .  A
C3207      C3208   1.403       .  A
C3207      O3211   1.372       .  S
C3208      H3212   1.084       .  S
O3209      H3214   0.992       .  S
O3211      H3215   0.992       .  S
C3217      C3218   1.403   1_556  A
C3217      C3222   1.408       .  A
C3217      H3227   1.084       .  S
C3218      C3223   1.496       .  S
C3218      C3219   1.408       .  A
C3219      C3220   1.410       .  A
C3219      O3224   1.371       .  S
C3220      C3221   1.412       .  A
C3220      H3225   1.083       .  S
C3221      C3222   1.418   1_554  A
C3222      O3226   1.371       .  S
C3223      C3228   1.404       .  A
C3223      C3232   1.408       .  A
O3224      H3240   0.992       .  S
O3226      H3237   0.992       .  S
C3228      C3229   1.400       .  A
C3228      O3233   1.372       .  S
C3229      C3230   1.413       .  A
C3229      H3234   1.083       .  S
C3230      C3231   1.416   1_554  A
C3231      C3232   1.417   1_556  A
C3231      O3235   1.371       .  S
C3232      H3236   1.083   1_554  S
O3233      H3238   0.992   1_554  S
O3235      H3239   0.991       .  S
C3241      C3242   1.402       .  A
C3241      C3246   1.392       .  A
C3241      H3251   1.084       .  S
C3242      C3247   1.457       .  S
C3242      C3243   1.399       .  A
C3243      C3244   1.391       .  A
C3243      O3248   1.371       .  S
C3244      C3245   1.406       .  A
C3244      H3249   1.084       .  S
C3245      C3246   1.406       .  A
C3246      O3250   1.372       .  S
C3247      C3252   1.398       .  A
C3247      C3256   1.401       .  A
O3248      H3264   0.992       .  S
O3250      H3261   0.992       .  S
C3252      C3253   1.392       .  A
C3252      O3257   1.372       .  S
C3253      C3254   1.408       .  A
C3253      H3258   1.084       .  S
C3254      C3255   1.407       .  A
C3255      C3256   1.393       .  A
C3255      O3259   1.372       .  S
C3256      H3260   1.084       .  S
O3257      H3262   0.992       .  S
O3259      H3263   0.992       .  S
C3265      C3266   1.402       .  A
C3265      C3270   1.391       .  A
C3265      H3275   1.084       .  S
C3266      C3271   1.461       .  S
C3266      C3267   1.399       .  A
C3267      C3268   1.397       .  A
C3267      O3272   1.372       .  S
C3268      C3269   1.409       .  A
C3268      H3273   1.083       .  S
C3269      C3270   1.408       .  A
C3270      O3274   1.372       .  S
C3271      C3276   1.409       .  A
C3271      C3280   1.397       .  A
O3272      H3288   0.991       .  S
O3274      H3285   0.992       .  S
C3276      C3277   1.395       .  A
C3276      O3281   1.373       .  S
C3277      C3278   1.399       .  A
C3277      H3282   1.084       .  S
C3278      C3279   1.412       .  A
C3279      C3280   1.392       .  A
C3279      O3283   1.372       .  S
C3280      H3284   1.084       .  S
O3281      H3286   0.992       .  S
O3283      H3287   0.992       .  S
C3289      C3290   1.405       .  A
C3289      C3294   1.401       .  A
C3289      H3299   1.083       .  S
C3290      C3295   1.486       .  S
C3290      C3291   1.411       .  A
C3291      C3292   1.397       .  A
C3291      O3296   1.372       .  S
C3292      C3293   1.402       .  A
C3292      H3297   1.084       .  S
C3293      C3294   1.411       .  A
C3294      O3298   1.372       .  S
C3295      C3300   1.410       .  A
C3295      C3304   1.401       .  A
O3296      H3312   0.992       .  S
O3298      H3309   0.992       .  S
C3300      C3301   1.406       .  A
C3300      O3305   1.372       .  S
C3301      C3302   1.408       .  A
C3301      H3306   1.083       .  S
C3302      C3303   1.413       .  A
C3303      C3304   1.393       .  A
C3303      O3307   1.372       .  S
C3304      H3308   1.084       .  S
O3305      H3310   0.992       .  S
O3307      H3311   0.992       .  S
C3313      C3314   1.411       .  A
C3313      C3318   1.414       .  A
C3313      H3323   1.083       .  S
C3314      C3319   1.525       .  S
C3314      C3315   1.417   1_554  A
C3315      C3316   1.416       .  A
C3315      O3320   1.371       .  S
C3316      C3317   1.412   1_556  A
C3316      H3321   1.083       .  S
C3317      C3318   1.419       .  A
C3318      O3322   1.371       .  S
C3319      C3324   1.416   1_554  A
C3319      C3328   1.414       .  A
O3320      H3336   0.992       .  S
O3322      H3333   0.992       .  S
C3324      C3325   1.413       .  A
C3324      O3329   1.371       .  S
C3325      C3326   1.411   1_556  A
C3325      H3330   1.083       .  S
C3326      C3327   1.414       .  A
C3327      C3328   1.418       .  A
C3327      O3331   1.371       .  S
C3328      H3332   1.083       .  S
O3329      H3334   0.992       .  S
O3331      H3335   0.992       .  S
C3337      C3338   1.400       .  A
C3337      C3342   1.395       .  A
C3337      H3347   1.084       .  S
C3338      C3343   1.475       .  S
C3338      C3339   1.405       .  A
C3339      C3340   1.400       .  A
C3339      O3344   1.372       .  S
C3340      C3341   1.409       .  A
C3340      H3345   1.083       .  S
C3341      C3342   1.414       .  A
C3342      O3346   1.371       .  S
C3343      C3348   1.405       .  A
C3343      C3352   1.400       .  A
O3344      H3360   0.992       .  S
O3346      H3357   0.992       .  S
C3348      C3349   1.396       .  A
C3348      O3353   1.373       .  S
C3349      C3350   1.406       .  A
C3349      H3354   1.083       .  S
C3350      C3351   1.415       .  A
C3351      C3352   1.401       .  A
C3351      O3355   1.371       .  S
C3352      H3356   1.084       .  S
O3353      H3358   0.992       .  S
O3355      H3359   0.992       .  S
C3361      C3362   1.399       .  A
C3361      C3366   1.398       .  A
C3361      H3371   1.084       .  S
C3362      C3367   1.472       .  S
C3362      C3363   1.405       .  A
C3363      C3364   1.399       .  A
C3363      O3368   1.372       .  S
C3364      C3365   1.404       .  A
C3364      H3369   1.084       .  S
C3365      C3366   1.413       .  A
C3366      O3370   1.372       .  S
C3367      C3372   1.402       .  A
C3367      C3376   1.401       .  A
O3368      H3384   0.992       .  S
O3370      H3381   0.991       .  S
C3372      C3373   1.394       .  A
C3372      O3377   1.373       .  S
C3373      C3374   1.408       .  A
C3373      H3378   1.083       .  S
C3374      C3375   1.414       .  A
C3375      C3376   1.403       .  A
C3375      O3379   1.371       .  S
C3376      H3380   1.084       .  S
O3377      H3382   0.991       .  S
O3379      H3383   0.992       .  S
C3385      C3386   1.403       .  A
C3385      C3390   1.400       .  A
C3385      H3395   1.084       .  S
C3386      C3391   1.480       .  S
C3386      C3387   1.407       .  A
C3387      C3388   1.399       .  A
C3387      O3392   1.373       .  S
C3388      C3389   1.405       .  A
C3388      H3393   1.084       .  S
C3389      C3390   1.412       .  A
C3390      O3394   1.372       .  S
C3391      C3396   1.408       .  A
C3391      C3400   1.403       .  A
O3392      H3408   0.992       .  S
O3394      H3405   0.991       .  S
C3396      C3397   1.396       .  A
C3396      O3401   1.372       .  S
C3397      C3398   1.405       .  A
C3397      H3402   1.084       .  S
C3398      C3399   1.411       .  A
C3399      C3400   1.402       .  A
C3399      O3403   1.371       .  S
C3400      H3404   1.084       .  S
O3401      H3406   0.992       .  S
O3403      H3407   0.992       .  S
C3409      C3410   1.401       .  A
C3409      C3414   1.393       .  A
C3409      H3419   1.084       .  S
C3410      C3415   1.479       .  S
C3410      C3411   1.406       .  A
C3411      C3412   1.403       .  A
C3411      O3416   1.371       .  S
C3412      C3413   1.409       .  A
C3412      H3417   1.083       .  S
C3413      C3414   1.414       .  A
C3414      O3418   1.372       .  S
C3415      C3420   1.407       .  A
C3415      C3424   1.405       .  A
O3416      H3432   0.992       .  S
O3418      H3429   0.992       .  S
C3420      C3421   1.389       .  A
C3420      O3425   1.372       .  S
C3421      C3422   1.403       .  A
C3421      H3426   1.084       .  S
C3422      C3423   1.412       .  A
C3423      C3424   1.407       .  A
C3423      O3427   1.371       .  S
C3424      H3428   1.083       .  S
O3425      H3430   0.992       .  S
O3427      H3431   0.992       .  S
C3433      C3434   1.405       .  A
C3433      C3438   1.407       .  A
C3433      H3443   1.084       .  S
C3434      C3439   1.498       .  S
C3434      C3435   1.410       .  A
C3435      C3436   1.409       .  A
C3435      O3440   1.372       .  S
C3436      C3437   1.411       .  A
C3436      H3441   1.083       .  S
C3437      C3438   1.416       .  A
C3438      O3442   1.372       .  S
C3439      C3444   1.413       .  A
C3439      C3448   1.403       .  A
O3440      H3456   0.992       .  S
O3442      H3453   0.992       .  S
C3444      C3445   1.412       .  A
C3444      O3449   1.371       .  S
C3445      C3446   1.408       .  A
C3445      H3450   1.083       .  S
C3446      C3447   1.414       .  A
C3447      C3448   1.402       .  A
C3447      O3451   1.372       .  S
C3448      H3452   1.084       .  S
O3449      H3454   0.992       .  S
O3451      H3455   0.992       .  S
C3457      C3458   1.414       .  A
C3457      C3462   1.415       .  A
C3457      H3467   1.082       .  S
C3458      C3463   1.534   1_554  S
C3458      C3459   1.421       .  A
C3459      C3460   1.417       .  A
C3459      O3464   1.370       .  S
C3460      C3461   1.410       .  A
C3460      H3465   1.083       .  S
C3461      C3462   1.417       .  A
C3462      O3466   1.371       .  S
C3463      C3468   1.420       .  A
C3463      C3472   1.415       .  A
O3464      H3480   0.991       .  S
O3466      H3477   0.992       .  S
C3468      C3469   1.414       .  A
C3468      O3473   1.371       .  S
C3469      C3470   1.411       .  A
C3469      H3474   1.083       .  S
C3470      C3471   1.416       .  A
C3471      C3472   1.418       .  A
C3471      O3475   1.371       .  S
C3472      H3476   1.082       .  S
O3473      H3478   0.992       .  S
O3475      H3479   0.991       .  S
C3481      C3482   1.402       .  A
C3481      C3486   1.393       .  A
C3481      H3491   1.084       .  S
C3482      C3487   1.464       .  S
C3482      C3483   1.401       .  A
C3483      C3484   1.396       .  A
C3483      O3488   1.373       .  S
C3484      C3485   1.408       .  A
C3484      H3489   1.084       .  S
C3485      C3486   1.406       .  A
C3486      O3490   1.373       .  S
C3487      C3492   1.408       .  A
C3487      C3496   1.398       .  A
O3488      H3504   0.992       .  S
O3490      H3501   0.992       .  S
C3492      C3493   1.395       .  A
C3492      O3497   1.372       .  S
C3493      C3494   1.400       .  A
C3493      H3498   1.084       .  S
C3494      C3495   1.412       .  A
C3495      C3496   1.392       .  A
C3495      O3499   1.372       .  S
C3496      H3500   1.084       .  S
O3497      H3502   0.992       .  S
O3499      H3503   0.992       .  S
C3505      C3506   1.403       .  A
C3505      C3510   1.392       .  A
C3505      H3515   1.084       .  S
C3506      C3511   1.461       .  S
C3506      C3507   1.400       .  A
C3507      C3508   1.392       .  A
C3507      O3512   1.372       .  S
C3508      C3509   1.409       .  A
C3508      H3513   1.083       .  S
C3509      C3510   1.407       .  A
C3510      O3514   1.371       .  S
C3511      C3516   1.402       .  A
C3511      C3520   1.402       .  A
O3512      H3528   0.991       .  S
O3514      H3525   0.992       .  S
C3516      C3517   1.394       .  A
C3516      O3521   1.373       .  S
C3517      C3518   1.405       .  A
C3517      H3522   1.084       .  S
C3518      C3519   1.405       .  A
C3519      C3520   1.391       .  A
C3519      O3523   1.372       .  S
C3520      H3524   1.084       .  S
O3521      H3526   0.992       .  S
O3523      H3527   0.992       .  S
C3529      C3530   1.398       .  A
C3529      C3534   1.401       .  A
C3529      H3539   1.084       .  S
C3530      C3535   1.471       .  S
C3530      C3531   1.404       .  A
C3531      C3532   1.396       .  A
C3531      O3536   1.372       .  S
C3532      C3533   1.407       .  A
C3532      H3537   1.083       .  S
C3533      C3534   1.417       .  A
C3534      O3538   1.372       .  S
C3535      C3540   1.404       .  A
C3535      C3544   1.400       .  A
O3536      H3552   0.992       .  S
O3538      H3549   0.992       .  S
C3540      C3541   1.394       .  A
C3540      O3545   1.372       .  S
C3541      C3542   1.406       .  A
C3541      H3546   1.083       .  S
C3542      C3543   1.414       .  A
C3543      C3544   1.401       .  A
C3543      O3547   1.371       .  S
C3544      H3548   1.084       .  S
O3545      H3550   0.992       .  S
O3547      H3551   0.992       .  S
C3553      C3554   1.408   1_554  A
C3553      C3558   1.408       .  A
C3553      H3563   1.083       .  S
C3554      C3559   1.502       .  S
C3554      C3555   1.412       .  A
C3555      C3556   1.409       .  A
C3555      O3560   1.372       .  S
C3556      C3557   1.408       .  A
C3556      H3561   1.083       .  S
C3557      C3558   1.413   1_556  A
C3558      O3562   1.371       .  S
C3559      C3564   1.413       .  A
C3559      C3568   1.405   1_556  A
O3560      H3576   0.992       .  S
O3562      H3573   0.992       .  S
C3564      C3565   1.409       .  A
C3564      O3569   1.371       .  S
C3565      C3566   1.408       .  A
C3565      H3570   1.083       .  S
C3566      C3567   1.415   1_556  A
C3567      C3568   1.405       .  A
C3567      O3571   1.372       .  S
C3568      H3572   1.084       .  S
O3569      H3574   0.992       .  S
O3571      H3575   0.992       .  S
C3577      C3578   1.398       .  A
C3577      C3582   1.396       .  A
C3577      H3587   1.084       .  S
C3578      C3583   1.465       .  S
C3578      C3579   1.407       .  A
C3579      C3580   1.392       .  A
C3579      O3584   1.373       .  S
C3580      C3581   1.401       .  A
C3580      H3585   1.084       .  S
C3581      C3582   1.413       .  A
C3582      O3586   1.372       .  S
C3583      C3588   1.408       .  A
C3583      C3592   1.398       .  A
O3584      H3600   0.992       .  S
O3586      H3597   0.992       .  S
C3588      C3589   1.394       .  A
C3588      O3593   1.372       .  S
C3589      C3590   1.399       .  A
C3589      H3594   1.084       .  S
C3590      C3591   1.410       .  A
C3591      C3592   1.395       .  A
C3591      O3595   1.373       .  S
C3592      H3596   1.084       .  S
O3593      H3598   0.992       .  S
O3595      H3599   0.992       .  S
C3601      C3602   1.403       .  A
C3601      C3606   1.392       .  A
C3601      H3611   1.084       .  S
C3602      C3607   1.465       .  S
C3602      C3603   1.402       .  A
C3603      C3604   1.396       .  A
C3603      O3608   1.373       .  S
C3604      C3605   1.407       .  A
C3604      H3609   1.084       .  S
C3605      C3606   1.407       .  A
C3606      O3610   1.371       .  S
C3607      C3612   1.410       .  A
C3607      C3616   1.399       .  A
O3608      H3624   0.992       .  S
O3610      H3621   0.992       .  S
C3612      C3613   1.391       .  A
C3612      O3617   1.373       .  S
C3613      C3614   1.398       .  A
C3613      H3618   1.084       .  S
C3614      C3615   1.413       .  A
C3615      C3616   1.395       .  A
C3615      O3619   1.372       .  S
C3616      H3620   1.084       .  S
O3617      H3622   0.992       .  S
O3619      H3623   0.993       .  S
C3625      C3626   1.396       .  A
C3625      C3630   1.394       .  A
C3625      H3635   1.084       .  S
C3626      C3631   1.473       .  S
C3626      C3627   1.405       .  A
C3627      C3628   1.405       .  A
C3627      O3632   1.371       .  S
C3628      C3629   1.410       .  A
C3628      H3633   1.083       .  S
C3629      C3630   1.416       .  A
C3630      O3634   1.372       .  S
C3631      C3636   1.404       .  A
C3631      C3640   1.401       .  A
O3632      H3648   0.991       .  S
O3634      H3645   0.992       .  S
C3636      C3637   1.399       .  A
C3636      O3641   1.372       .  S
C3637      C3638   1.408       .  A
C3637      H3642   1.084       .  S
C3638      C3639   1.411       .  A
C3639      C3640   1.400       .  A
C3639      O3643   1.371       .  S
C3640      H3644   1.084       .  S
O3641      H3646   0.992       .  S
O3643      H3647   0.992       .  S
C3649      C3650   1.406       .  A
C3649      C3654   1.412       .  A
C3649      H3659   1.083       .  S
C3650      C3655   1.507       .  S
C3650      C3651   1.410   1_556  A
C3651      C3652   1.412       .  A
C3651      O3656   1.371       .  S
C3652      C3653   1.412   1_554  A
C3652      H3657   1.083       .  S
C3653      C3654   1.419       .  A
C3654      O3658   1.372       .  S
C3655      C3660   1.406       .  A
C3655      C3664   1.411       .  A
O3656      H3672   0.992       .  S
O3658      H3669   0.992       .  S
C3660      C3661   1.406       .  A
C3660      O3665   1.372       .  S
C3661      C3662   1.414       .  A
C3661      H3666   1.083       .  S
C3662      C3663   1.415       .  A
C3663      C3664   1.420       .  A
C3663      O3667   1.370   1_556  S
C3664      H3668   1.083   1_556  S
O3665      H3670   0.992       .  S
O3667      H3671   0.992   1_554  S
C3673      C3674   1.409       .  A
C3673      C3678   1.414       .  A
C3673      H3683   1.083       .  S
C3674      C3679   1.524       .  S
C3674      C3675   1.416       .  A
C3675      C3676   1.419       .  A
C3675      O3680   1.371   1_556  S
C3676      C3677   1.413       .  A
C3676      H3681   1.083   1_556  S
C3677      C3678   1.420       .  A
C3678      O3682   1.371       .  S
C3679      C3684   1.415       .  A
C3679      C3688   1.411   1_556  A
O3680      H3696   0.991   1_554  S
O3682      H3693   0.992       .  S
C3684      C3685   1.416       .  A
C3684      O3689   1.372       .  S
C3685      C3686   1.412       .  A
C3685      H3690   1.083       .  S
C3686      C3687   1.419   1_556  A
C3687      C3688   1.419       .  A
C3687      O3691   1.371       .  S
C3688      H3692   1.083       .  S
O3689      H3694   0.992       .  S
O3691      H3695   0.992       .  S
C3697      C3698   1.399       .  A
C3697      C3702   1.397       .  A
C3697      H3707   1.084       .  S
C3698      C3703   1.468       .  S
C3698      C3699   1.402       .  A
C3699      C3700   1.398       .  A
C3699      O3704   1.371       .  S
C3700      C3701   1.408       .  A
C3700      H3705   1.083       .  S
C3701      C3702   1.414       .  A
C3702      O3706   1.372       .  S
C3703      C3708   1.403       .  A
C3703      C3712   1.400       .  A
O3704      H3720   0.991       .  S
O3706      H3717   0.992       .  S
C3708      C3709   1.399       .  A
C3708      O3713   1.372       .  S
C3709      C3710   1.408       .  A
C3709      H3714   1.083       .  S
C3710      C3711   1.410       .  A
C3711      C3712   1.396       .  A
C3711      O3715   1.372       .  S
C3712      H3716   1.084       .  S
O3713      H3718   0.992       .  S
O3715      H3719   0.992       .  S
C3721      C3722   1.404       .  A
C3721      C3726   1.399       .  A
C3721      H3731   1.083       .  S
C3722      C3727   1.482       .  S
C3722      C3723   1.409       .  A
C3723      C3724   1.397       .  A
C3723      O3728   1.372       .  S
C3724      C3725   1.405       .  A
C3724      H3729   1.084       .  S
C3725      C3726   1.410       .  A
C3726      O3730   1.372       .  S
C3727      C3732   1.409       .  A
C3727      C3736   1.402       .  A
O3728      H3744   0.992       .  S
O3730      H3741   0.992       .  S
C3732      C3733   1.402       .  A
C3732      O3737   1.372       .  S
C3733      C3734   1.405       .  A
C3733      H3738   1.083       .  S
C3734      C3735   1.414       .  A
C3735      C3736   1.396       .  A
C3735      O3739   1.372       .  S
C3736      H3740   1.084       .  S
O3737      H3742   0.992       .  S
O3739      H3743   0.991       .  S
C3745      C3746   1.405       .  A
C3745      C3750   1.406       .  A
C3745      H3755   1.084       .  S
C3746      C3751   1.503       .  S
C3746      C3747   1.413       .  A
C3747      C3748   1.412       .  A
C3747      O3752   1.373       .  S
C3748      C3749   1.407       .  A
C3748      H3753   1.083       .  S
C3749      C3750   1.414       .  A
C3750      O3754   1.372       .  S
C3751      C3756   1.412       .  A
C3751      C3760   1.407       .  A
O3752      H3768   0.992       .  S
O3754      H3765   0.992       .  S
C3756      C3757   1.407       .  A
C3756      O3761   1.371       .  S
C3757      C3758   1.409       .  A
C3757      H3762   1.083       .  S
C3758      C3759   1.415       .  A
C3759      C3760   1.409       .  A
C3759      O3763   1.371       .  S
C3760      H3764   1.083       .  S
O3761      H3766   0.992       .  S
O3763      H3767   0.992       .  S
C3769      C3770   1.400       .  A
C3769      C3774   1.397       .  A
C3769      H3779   1.084       .  S
C3770      C3775   1.476       .  S
C3770      C3771   1.408       .  A
C3771      C3772   1.399       .  A
C3771      O3776   1.372       .  S
C3772      C3773   1.404       .  A
C3772      H3777   1.084       .  S
C3773      C3774   1.411       .  A
C3774      O3778   1.372       .  S
C3775      C3780   1.407       .  A
C3775      C3784   1.399       .  A
O3776      H3792   0.992       .  S
O3778      H3789   0.992       .  S
C3780      C3781   1.398       .  A
C3780      O3785   1.372       .  S
C3781      C3782   1.405       .  A
C3781      H3786   1.083       .  S
C3782      C3783   1.416       .  A
C3783      C3784   1.398       .  A
C3783      O3787   1.372       .  S
C3784      H3788   1.084       .  S
O3785      H3790   0.992       .  S
O3787      H3791   0.992       .  S
C3793      C3794   1.402       .  A
C3793      C3798   1.401       .  A
C3793      H3803   1.084       .  S
C3794      C3799   1.473       .  S
C3794      C3795   1.404       .  A
C3795      C3796   1.395       .  A
C3795      O3800   1.373       .  S
C3796      C3797   1.407       .  A
C3796      H3801   1.084       .  S
C3797      C3798   1.412       .  A
C3798      O3802   1.371       .  S
C3799      C3804   1.407       .  A
C3799      C3808   1.400       .  A
O3800      H3816   0.992       .  S
O3802      H3813   0.992       .  S
C3804      C3805   1.398       .  A
C3804      O3809   1.373       .  S
C3805      C3806   1.404       .  A
C3805      H3810   1.084       .  S
C3806      C3807   1.412       .  A
C3807      C3808   1.399       .  A
C3807      O3811   1.372       .  S
C3808      H3812   1.084       .  S
O3809      H3814   0.992       .  S
O3811      H3815   0.992       .  S
C3817      C3818   1.411       .  A
C3817      C3822   1.421       .  A
C3817      H3827   1.083       .  S
C3818      C3823   1.506       .  S
C3818      C3819   1.406       .  A
C3819      C3820   1.404       .  A
C3819      O3824   1.372       .  S
C3820      C3821   1.412       .  A
C3820      H3825   1.083       .  S
C3821      C3822   1.418       .  A
C3822      O3826   1.371       .  S
C3823      C3828   1.409       .  A
C3823      C3832   1.410       .  A
O3824      H3840   0.992       .  S
O3826      H3837   0.992       .  S
C3828      C3829   1.406       .  A
C3828      O3833   1.371       .  S
C3829      C3830   1.409       .  A
C3829      H3834   1.084       .  S
C3830      C3831   1.414       .  A
C3831      C3832   1.419       .  A
C3831      O3835   1.371       .  S
C3832      H3836   1.083       .  S
O3833      H3838   0.991       .  S
O3835      H3839   0.991       .  S
C3841      C3842   1.409       .  A
C3841      C3846   1.412       .  A
C3841      H3851   1.083       .  S
C3842      C3847   1.518   1_565  S
C3842      C3843   1.415       .  A
C3843      C3844   1.416       .  A
C3843      O3848   1.371       .  S
C3844      C3845   1.411       .  A
C3844      H3849   1.083       .  S
C3845      C3846   1.417       .  A
C3846      O3850   1.371       .  S
C3847      C3852   1.413       .  A
C3847      C3856   1.410       .  A
O3848      H3864   0.991       .  S
O3850      H3861   0.992       .  S
C3852      C3853   1.414       .  A
C3852      O3857   1.372       .  S
C3853      C3854   1.412       .  A
C3853      H3858   1.083       .  S
C3854      C3855   1.417       .  A
C3855      C3856   1.417       .  A
C3855      O3859   1.371       .  S
C3856      H3860   1.083       .  S
O3857      H3862   0.992       .  S
O3859      H3863   0.992       .  S
C3865      C3866   1.402       .  A
C3865      C3870   1.392       .  A
C3865      H3875   1.084       .  S
C3866      C3871   1.464       .  S
C3866      C3867   1.400       .  A
C3867      C3868   1.397       .  A
C3867      O3872   1.373       .  S
C3868      C3869   1.411       .  A
C3868      H3873   1.083       .  S
C3869      C3870   1.409       .  A
C3870      O3874   1.372       .  S
C3871      C3876   1.410       .  A
C3871      C3880   1.397       .  A
O3872      H3888   0.992       .  S
O3874      H3885   0.991       .  S
C3876      C3877   1.395       .  A
C3876      O3881   1.373       .  S
C3877      C3878   1.400       .  A
C3877      H3882   1.084       .  S
C3878      C3879   1.414       .  A
C3879      C3880   1.393       .  A
C3879      O3883   1.372       .  S
C3880      H3884   1.084       .  S
O3881      H3886   0.992       .  S
O3883      H3887   0.992       .  S
C3889      C3890   1.403       .  A
C3889      C3894   1.395       .  A
C3889      H3899   1.084       .  S
C3890      C3895   1.462       .  S
C3890      C3891   1.401       .  A
C3891      C3892   1.392       .  A
C3891      O3896   1.371       .  S
C3892      C3893   1.405       .  A
C3892      H3897   1.084       .  S
C3893      C3894   1.405       .  A
C3894      O3898   1.373       .  S
C3895      C3900   1.398       .  A
C3895      C3904   1.402       .  A
O3896      H3912   0.992       .  S
O3898      H3909   0.992       .  S
C3900      C3901   1.392       .  A
C3900      O3905   1.372       .  S
C3901      C3902   1.410       .  A
C3901      H3906   1.083       .  S
C3902      C3903   1.409       .  A
C3903      C3904   1.395       .  A
C3903      O3907   1.371       .  S
C3904      H3908   1.084       .  S
O3905      H3910   0.992       .  S
O3907      H3911   0.992       .  S
C3913      C3914   1.401       .  A
C3913      C3918   1.394       .  A
C3913      H3923   1.084       .  S
C3914      C3919   1.474       .  S
C3914      C3915   1.406       .  A
C3915      C3916   1.399       .  A
C3915      O3920   1.372       .  S
C3916      C3917   1.407       .  A
C3916      H3921   1.083       .  S
C3917      C3918   1.411       .  A
C3918      O3922   1.372       .  S
C3919      C3924   1.407       .  A
C3919      C3928   1.402       .  A
O3920      H3936   0.992       .  S
O3922      H3933   0.992       .  S
C3924      C3925   1.396       .  A
C3924      O3929   1.372       .  S
C3925      C3926   1.402       .  A
C3925      H3930   1.084       .  S
C3926      C3927   1.412       .  A
C3927      C3928   1.399       .  A
C3927      O3931   1.372       .  S
C3928      H3932   1.084       .  S
O3929      H3934   0.992       .  S
O3931      H3935   0.992       .  S
C3937      C3938   1.408       .  A
C3937      C3942   1.406       .  A
C3937      H3947   1.083       .  S
C3938      C3943   1.489       .  S
C3938      C3939   1.408       .  A
C3939      C3940   1.394       .  A
C3939      O3944   1.372       .  S
C3940      C3941   1.407       .  A
C3940      H3945   1.083       .  S
C3941      C3942   1.412       .  A
C3942      O3946   1.371       .  S
C3943      C3948   1.409       .  A
C3943      C3952   1.405       .  A
O3944      H3960   0.992       .  S
O3946      H3957   0.992       .  S
C3948      C3949   1.402       .  A
C3948      O3953   1.372       .  S
C3949      C3950   1.406       .  A
C3949      H3954   1.083       .  S
C3950      C3951   1.413       .  A
C3951      C3952   1.400       .  A
C3951      O3955   1.372       .  S
C3952      H3956   1.084       .  S
O3953      H3958   0.992       .  S
O3955      H3959   0.992       .  S
C3961      C3962   1.406       .  A
C3961      C3966   1.412       .  A
C3961      H3971   1.083       .  S
C3962      C3967   1.499   1_565  S
C3962      C3963   1.408   1_565  A
C3963      C3964   1.406       .  A
C3963      O3968   1.372       .  S
C3964      C3965   1.411   1_545  A
C3964      H3969   1.083       .  S
C3965      C3966   1.417       .  A
C3966      O3970   1.371       .  S
C3967      C3972   1.407       .  A
C3967      C3976   1.408   1_545  A
O3968      H3984   0.992       .  S
O3970      H3981   0.992       .  S
C3972      C3973   1.402       .  A
C3972      O3977   1.372       .  S
C3973      C3974   1.413       .  A
C3973      H3978   1.083       .  S
C3974      C3975   1.416   1_545  A
C3975      C3976   1.415       .  A
C3975      O3979   1.371       .  S
C3976      H3980   1.083       .  S
O3977      H3982   0.992       .  S
O3979      H3983   0.991       .  S
C3985      C3986   1.406       .  A
C3985      C3990   1.393       .  A
C3985      H3995   1.083       .  S
C3986      C3991   1.472       .  S
C3986      C3987   1.403       .  A
C3987      C3988   1.393       .  A
C3987      O3992   1.372       .  S
C3988      C3989   1.409       .  A
C3988      H3993   1.083       .  S
C3989      C3990   1.407       .  A
C3990      O3994   1.371       .  S
C3991      C3996   1.404       .  A
C3991      C4000   1.408       .  A
O3992      H4008   0.991       .  S
O3994      H4005   0.992       .  S
C3996      C3997   1.396       .  A
C3996      O4001   1.374       .  S
C3997      C3998   1.404       .  A
C3997      H4002   1.084       .  S
C3998      C3999   1.401       .  A
C3999      C4000   1.394       .  A
C3999      O4003   1.372       .  S
C4000      H4004   1.084       .  S
O4001      H4006   0.992       .  S
O4003      H4007   0.991       .  S
C4009      C4010   1.398       .  A
C4009      C4014   1.393       .  A
C4009      H4019   1.084       .  S
C4010      C4015   1.466       .  S
C4010      C4011   1.410       .  A
C4011      C4012   1.397       .  A
C4011      O4016   1.372       .  S
C4012      C4013   1.399       .  A
C4012      H4017   1.084       .  S
C4013      C4014   1.410       .  A
C4014      O4018   1.372       .  S
C4015      C4020   1.402       .  A
C4015      C4024   1.404       .  A
O4016      H4032   0.992       .  S
O4018      H4029   0.992       .  S
C4020      C4021   1.397       .  A
C4020      O4025   1.371       .  S
C4021      C4022   1.407       .  A
C4021      H4026   1.084       .  S
C4022      C4023   1.402       .  A
C4023      C4024   1.392       .  A
C4023      O4027   1.371       .  S
C4024      H4028   1.084       .  S
O4025      H4030   0.991       .  S
O4027      H4031   0.992       .  S
C4033      C4034   1.400       .  A
C4033      C4038   1.401       .  A
C4033      H4043   1.084       .  S
C4034      C4039   1.474       .  S
C4034      C4035   1.405       .  A
C4035      C4036   1.394       .  A
C4035      O4040   1.372       .  S
C4036      C4037   1.407       .  A
C4036      H4041   1.083       .  S
C4037      C4038   1.415       .  A
C4038      O4042   1.371       .  S
C4039      C4044   1.404       .  A
C4039      C4048   1.400       .  A
O4040      H4056   0.992       .  S
O4042      H4053   0.992       .  S
C4044      C4045   1.399       .  A
C4044      O4049   1.372       .  S
C4045      C4046   1.408       .  A
C4045      H4050   1.083       .  S
C4046      C4047   1.413       .  A
C4047      C4048   1.397       .  A
C4047      O4051   1.372       .  S
C4048      H4052   1.084       .  S
O4049      H4054   0.992       .  S
O4051      H4055   0.992       .  S
C4057      C4058   1.400       .  A
C4057      C4062   1.394       .  A
C4057      H4067   1.084       .  S
C4058      C4063   1.472       .  S
C4058      C4059   1.406       .  A
C4059      C4060   1.401       .  A
C4059      O4064   1.372       .  S
C4060      C4061   1.405       .  A
C4060      H4065   1.084       .  S
C4061      C4062   1.409       .  A
C4062      O4066   1.373       .  S
C4063      C4068   1.404       .  A
C4063      C4072   1.401       .  A
O4064      H4080   0.992       .  S
O4066      H4077   0.992       .  S
C4068      C4069   1.392       .  A
C4068      O4073   1.372       .  S
C4069      C4070   1.407       .  A
C4069      H4074   1.083       .  S
C4070      C4071   1.414       .  A
C4071      C4072   1.402       .  A
C4071      O4075   1.371       .  S
C4072      H4076   1.083       .  S
O4073      H4078   0.992       .  S
O4075      H4079   0.992       .  S
C4081      C4082   1.408   1_545  A
C4081      C4086   1.417       .  A
C4081      H4091   1.083       .  S
C4082      C4087   1.498   1_565  S
C4082      C4083   1.407       .  A
C4083      C4084   1.401       .  A
C4083      O4088   1.372       .  S
C4084      C4085   1.412       .  A
C4084      H4089   1.083       .  S
C4085      C4086   1.417   1_565  A
C4086      O4090   1.371       .  S
C4087      C4092   1.412   1_545  A
C4087      C4096   1.403       .  A
O4088      H4104   0.992       .  S
O4090      H4101   0.992       .  S
C4092      C4093   1.415       .  A
C4092      O4097   1.370       .  S
C4093      C4094   1.409   1_565  A
C4093      H4098   1.083       .  S
C4094      C4095   1.414       .  A
C4095      C4096   1.401       .  A
C4095      O4099   1.372       .  S
C4096      H4100   1.084       .  S
O4097      H4102   0.991       .  S
O4099      H4103   0.992       .  S
C4105      C4106   1.409       .  A
C4105      C4110   1.413       .  A
C4105      H4115   1.083       .  S
C4106      C4111   1.517       .  S
C4106      C4107   1.415   1_565  A
C4107      C4108   1.413       .  A
C4107      O4112   1.371       .  S
C4108      C4109   1.410   1_545  A
C4108      H4113   1.083       .  S
C4109      C4110   1.418       .  A
C4110      O4114   1.371       .  S
C4111      C4116   1.415       .  A
C4111      C4120   1.408   1_565  A
O4112      H4128   0.991   1_545  S
O4114      H4125   0.992       .  S
C4116      C4117   1.414       .  A
C4116      O4121   1.371       .  S
C4117      C4118   1.412       .  A
C4117      H4122   1.083       .  S
C4118      C4119   1.419   1_565  A
C4119      C4120   1.411       .  A
C4119      O4123   1.371       .  S
C4120      H4124   1.083       .  S
O4121      H4126   0.992       .  S
O4123      H4127   0.992       .  S
C4129      C4130   1.401       .  A
C4129      C4134   1.402       .  A
C4129      H4139   1.083       .  S
C4130      C4135   1.480       .  S
C4130      C4131   1.407       .  A
C4131      C4132   1.397       .  A
C4131      O4136   1.372       .  S
C4132      C4133   1.406       .  A
C4132      H4137   1.083       .  S
C4133      C4134   1.417       .  A
C4134      O4138   1.372       .  S
C4135      C4140   1.406       .  A
C4135      C4144   1.400       .  A
O4136      H4152   0.992       .  S
O4138      H4149   0.992       .  S
C4140      C4141   1.402       .  A
C4140      O4145   1.371       .  S
C4141      C4142   1.408       .  A
C4141      H4146   1.083       .  S
C4142      C4143   1.416       .  A
C4143      C4144   1.397       .  A
C4143      O4147   1.372       .  S
C4144      H4148   1.084       .  S
O4145      H4150   0.992       .  S
O4147      H4151   0.992       .  S
C4153      C4154   1.402       .  A
C4153      C4158   1.397       .  A
C4153      H4163   1.084       .  S
C4154      C4159   1.481       .  S
C4154      C4155   1.408       .  A
C4155      C4156   1.401       .  A
C4155      O4160   1.372       .  S
C4156      C4157   1.406       .  A
C4156      H4161   1.083       .  S
C4157      C4158   1.412       .  A
C4158      O4162   1.372       .  S
C4159      C4164   1.408       .  A
C4159      C4168   1.400       .  A
O4160      H4176   0.992       .  S
O4162      H4173   0.992       .  S
C4164      C4165   1.402       .  A
C4164      O4169   1.371       .  S
C4165      C4166   1.408       .  A
C4165      H4170   1.083       .  S
C4166      C4167   1.416       .  A
C4167      C4168   1.395       .  A
C4167      O4171   1.372       .  S
C4168      H4172   1.084       .  S
O4169      H4174   0.991       .  S
O4171      H4175   0.992       .  S
C4177      C4178   1.404       .  A
C4177      C4182   1.408       .  A
C4177      H4187   1.084       .  S
C4178      C4183   1.505       .  S
C4178      C4179   1.411       .  A
C4179      C4180   1.414       .  A
C4179      O4184   1.371       .  S
C4180      C4181   1.412       .  A
C4180      H4185   1.083       .  S
C4181      C4182   1.420       .  A
C4182      O4186   1.372       .  S
C4183      C4188   1.408       .  A
C4183      C4192   1.411       .  A
O4184      H4200   0.991       .  S
O4186      H4197   0.992       .  S
C4188      C4189   1.403       .  A
C4188      O4193   1.372       .  S
C4189      C4190   1.411       .  A
C4189      H4194   1.084       .  S
C4190      C4191   1.413       .  A
C4191      C4192   1.418       .  A
C4191      O4195   1.370       .  S
C4192      H4196   1.083       .  S
O4193      H4198   0.992       .  S
O4195      H4199   0.991       .  S
C4201      C4202   1.403       .  A
C4201      C4206   1.401       .  A
C4201      H4211   1.083       .  S
C4202      C4207   1.477       .  S
C4202      C4203   1.408       .  A
C4203      C4204   1.396       .  A
C4203      O4208   1.372       .  S
C4204      C4205   1.403       .  A
C4204      H4209   1.084       .  S
C4205      C4206   1.410       .  A
C4206      O4210   1.371       .  S
C4207      C4212   1.407       .  A
C4207      C4216   1.401       .  A
O4208      H4224   0.992       .  S
O4210      H4221   0.992       .  S
C4212      C4213   1.401       .  A
C4212      O4217   1.372       .  S
C4213      C4214   1.406       .  A
C4213      H4218   1.083       .  S
C4214      C4215   1.412       .  A
C4215      C4216   1.396       .  A
C4215      O4219   1.372       .  S
C4216      H4220   1.084       .  S
O4217      H4222   0.992       .  S
O4219      H4223   0.992       .  S
C4225      C4226   1.403       .  A
C4225      C4230   1.395       .  A
C4225      H4235   1.084       .  S
C4226      C4231   1.484       .  S
C4226      C4227   1.409       .  A
C4227      C4228   1.405       .  A
C4227      O4232   1.373       .  S
C4228      C4229   1.407       .  A
C4228      H4233   1.083       .  S
C4229      C4230   1.411       .  A
C4230      O4234   1.372       .  S
C4231      C4236   1.410       .  A
C4231      C4240   1.403       .  A
O4232      H4248   0.992       .  S
O4234      H4245   0.992       .  S
C4236      C4237   1.401       .  A
C4236      O4241   1.371       .  S
C4237      C4238   1.406       .  A
C4237      H4242   1.083       .  S
C4238      C4239   1.413       .  A
C4239      C4240   1.397       .  A
C4239      O4243   1.372       .  S
C4240      H4244   1.084       .  S
O4241      H4246   0.992       .  S
O4243      H4247   0.992       .  S
C4249      C4250   1.406       .  A
C4249      C4254   1.408       .  A
C4249      H4259   1.083       .  S
C4250      C4255   1.507       .  S
C4250      C4251   1.411       .  A
C4251      C4252   1.413       .  A
C4251      O4256   1.371       .  S
C4252      C4253   1.413       .  A
C4252      H4257   1.083       .  S
C4253      C4254   1.417       .  A
C4254      O4258   1.371       .  S
C4255      C4260   1.408       .  A
C4255      C4264   1.412       .  A
O4256      H4272   0.992       .  S
O4258      H4269   0.992       .  S
C4260      C4261   1.403       .  A
C4260      O4265   1.372       .  S
C4261      C4262   1.412       .  A
C4261      H4266   1.083       .  S
C4262      C4263   1.415       .  A
C4263      C4264   1.418       .  A
C4263      O4267   1.371       .  S
C4264      H4268   1.083       .  S
O4265      H4270   0.992       .  S
O4267      H4271   0.991       .  S
C4273      C4274   1.410       .  A
C4273      C4278   1.414       .  A
C4273      H4283   1.083       .  S
C4274      C4279   1.526   1_655  S
C4274      C4275   1.418       .  A
C4275      C4276   1.419       .  A
C4275      O4280   1.371       .  S
C4276      C4277   1.412       .  A
C4276      H4281   1.083       .  S
C4277      C4278   1.418       .  A
C4278      O4282   1.371       .  S
C4279      C4284   1.416       .  A
C4279      C4288   1.413       .  A
O4280      H4296   0.992       .  S
O4282      H4293   0.992       .  S
C4284      C4285   1.415       .  A
C4284      O4289   1.372       .  S
C4285      C4286   1.411       .  A
C4285      H4290   1.083       .  S
C4286      C4287   1.417       .  A
C4287      C4288   1.419       .  A
C4287      O4291   1.371       .  S
C4288      H4292   1.083       .  S
O4289      H4294   0.992       .  S
O4291      H4295   0.991       .  S
C4297      C4298   1.404       .  A
C4297      C4302   1.394       .  A
C4297      H4307   1.084       .  S
C4298      C4303   1.465       .  S
C4298      C4299   1.402       .  A
C4299      C4300   1.391       .  A
C4299      O4304   1.371       .  S
C4300      C4301   1.405       .  A
C4300      H4305   1.084       .  S
C4301      C4302   1.406       .  A
C4302      O4306   1.371       .  S
C4303      C4308   1.402       .  A
C4303      C4312   1.404       .  A
O4304      H4320   0.991       .  S
O4306      H4317   0.991       .  S
C4308      C4309   1.396       .  A
C4308      O4313   1.372       .  S
C4309      C4310   1.407       .  A
C4309      H4314   1.084       .  S
C4310      C4311   1.405       .  A
C4311      C4312   1.392       .  A
C4311      O4315   1.372       .  S
C4312      H4316   1.084       .  S
O4313      H4318   0.992       .  S
O4315      H4319   0.992       .  S
C4321      C4322   1.402       .  A
C4321      C4326   1.395       .  A
C4321      H4331   1.084       .  S
C4322      C4327   1.466       .  S
C4322      C4323   1.402       .  A
C4323      C4324   1.396       .  A
C4323      O4328   1.374       .  S
C4324      C4325   1.406       .  A
C4324      H4329   1.084       .  S
C4325      C4326   1.409       .  A
C4326      O4330   1.371       .  S
C4327      C4332   1.407       .  A
C4327      C4336   1.399       .  A
O4328      H4344   0.992       .  S
O4330      H4341   0.992       .  S
C4332      C4333   1.391       .  A
C4332      O4337   1.373       .  S
C4333      C4334   1.401       .  A
C4333      H4338   1.084       .  S
C4334      C4335   1.413       .  A
C4335      C4336   1.397       .  A
C4335      O4339   1.371       .  S
C4336      H4340   1.084       .  S
O4337      H4342   0.992       .  S
O4339      H4343   0.992       .  S
C4345      C4346   1.400       .  A
C4345      C4350   1.393       .  A
C4345      H4355   1.083       .  S
C4346      C4351   1.480       .  S
C4346      C4347   1.410       .  A
C4347      C4348   1.403       .  A
C4347      O4352   1.371       .  S
C4348      C4349   1.404       .  A
C4348      H4353   1.083       .  S
C4349      C4350   1.413       .  A
C4350      O4354   1.372       .  S
C4351      C4356   1.407       .  A
C4351      C4360   1.403       .  A
O4352      H4368   0.991       .  S
O4354      H4365   0.992       .  S
C4356      C4357   1.398       .  A
C4356      O4361   1.373       .  S
C4357      C4358   1.405       .  A
C4357      H4362   1.084       .  S
C4358      C4359   1.410       .  A
C4359      C4360   1.399       .  A
C4359      O4363   1.372       .  S
C4360      H4364   1.084       .  S
O4361      H4366   0.992       .  S
O4363      H4367   0.992       .  S
C4369      C4370   1.401       .  A
C4369      C4374   1.394       .  A
C4369      H4379   1.084       .  S
C4370      C4375   1.483       .  S
C4370      C4371   1.409       .  A
C4371      C4372   1.406       .  A
C4371      O4376   1.372       .  S
C4372      C4373   1.407       .  A
C4372      H4377   1.083       .  S
C4373      C4374   1.411       .  A
C4374      O4378   1.372       .  S
C4375      C4380   1.409       .  A
C4375      C4384   1.402       .  A
O4376      H4392   0.992       .  S
O4378      H4389   0.992       .  S
C4380      C4381   1.404       .  A
C4380      O4385   1.371       .  S
C4381      C4382   1.407       .  A
C4381      H4386   1.083       .  S
C4382      C4383   1.410       .  A
C4383      C4384   1.396       .  A
C4383      O4387   1.372       .  S
C4384      H4388   1.084       .  S
O4385      H4390   0.992       .  S
O4387      H4391   0.992       .  S
C4393      C4394   1.402       .  A
C4393      C4398   1.405       .  A
C4393      H4403   1.084       .  S
C4394      C4399   1.498   1_455  S
C4394      C4395   1.412   1_455  A
C4395      C4396   1.414       .  A
C4395      O4400   1.371       .  S
C4396      C4397   1.409   1_655  A
C4396      H4401   1.083       .  S
C4397      C4398   1.417       .  A
C4398      O4402   1.372       .  S
C4399      C4404   1.412   1_655  A
C4399      C4408   1.403       .  A
O4400      H4416   0.992       .  S
O4402      H4413   0.992       .  S
C4404      C4405   1.414       .  A
C4404      O4409   1.371       .  S
C4405      C4406   1.407   1_455  A
C4405      H4410   1.083       .  S
C4406      C4407   1.415       .  A
C4407      C4408   1.406       .  A
C4407      O4411   1.372       .  S
C4408      H4412   1.084       .  S
O4409      H4414   0.992       .  S
O4411      H4415   0.995       .  S
C4417      C4418   1.398       .  A
C4417      C4422   1.391       .  A
C4417      H4427   1.084       .  S
C4418      C4423   1.466       .  S
C4418      C4419   1.408       .  A
C4419      C4420   1.396       .  A
C4419      O4424   1.372       .  S
C4420      C4421   1.401       .  A
C4420      H4425   1.084       .  S
C4421      C4422   1.411       .  A
C4422      O4426   1.372       .  S
C4423      C4428   1.402       .  A
C4423      C4432   1.404       .  A
O4424      H4440   0.992       .  S
O4426      H4437   0.991       .  S
C4428      C4429   1.395       .  A
C4428      O4433   1.371       .  S
C4429      C4430   1.407       .  A
C4429      H4434   1.084       .  S
C4430      C4431   1.405       .  A
C4431      C4432   1.391       .  A
C4431      O4435   1.372       .  S
C4432      H4436   1.084       .  S
O4433      H4438   0.991       .  S
O4435      H4439   0.992       .  S
C4441      C4442   1.404       .  A
C4441      C4446   1.393       .  A
C4441      H4451   1.083       .  S
C4442      C4447   1.466       .  S
C4442      C4443   1.404       .  A
C4443      C4444   1.393       .  A
C4443      O4448   1.371       .  S
C4444      C4445   1.405       .  A
C4444      H4449   1.084       .  S
C4445      C4446   1.404       .  A
C4446      O4450   1.372       .  S
C4447      C4452   1.402       .  A
C4447      C4456   1.404       .  A
O4448      H4464   0.991       .  S
O4450      H4461   0.992       .  S
C4452      C4453   1.395       .  A
C4452      O4457   1.373       .  S
C4453      C4454   1.407       .  A
C4453      H4458   1.084       .  S
C4454      C4455   1.406       .  A
C4455      C4456   1.392       .  A
C4455      O4459   1.372       .  S
C4456      H4460   1.084       .  S
O4457      H4462   0.992       .  S
O4459      H4463   0.992       .  S
C4465      C4466   1.401       .  A
C4465      C4470   1.397       .  A
C4465      H4475   1.084       .  S
C4466      C4471   1.473       .  S
C4466      C4467   1.402       .  A
C4467      C4468   1.399       .  A
C4467      O4472   1.372       .  S
C4468      C4469   1.409       .  A
C4468      H4473   1.083       .  S
C4469      C4470   1.414       .  A
C4470      O4474   1.372       .  S
C4471      C4476   1.403       .  A
C4471      C4480   1.403       .  A
O4472      H4488   0.992       .  S
O4474      H4485   0.992       .  S
C4476      C4477   1.393       .  A
C4476      O4481   1.373       .  S
C4477      C4478   1.407       .  A
C4477      H4482   1.084       .  S
C4478      C4479   1.412       .  A
C4479      C4480   1.403       .  A
C4479      O4483   1.371       .  S
C4480      H4484   1.083       .  S
O4481      H4486   0.992       .  S
O4483      H4487   0.992       .  S
C4489      C4490   1.401       .  A
C4489      C4494   1.401       .  A
C4489      H4499   1.084       .  S
C4490      C4495   1.471       .  S
C4490      C4491   1.403       .  A
C4491      C4492   1.396       .  A
C4491      O4496   1.372       .  S
C4492      C4493   1.408       .  A
C4492      H4497   1.083       .  S
C4493      C4494   1.413       .  A
C4494      O4498   1.371       .  S
C4495      C4500   1.406       .  A
C4495      C4504   1.397       .  A
O4496      H4512   0.992       .  S
O4498      H4509   0.992       .  S
C4500      C4501   1.405       .  A
C4500      O4505   1.371       .  S
C4501      C4502   1.408       .  A
C4501      H4506   1.083       .  S
C4502      C4503   1.414       .  A
C4503      C4504   1.392       .  A
C4503      O4507   1.372       .  S
C4504      H4508   1.084       .  S
O4505      H4510   0.991       .  S
O4507      H4511   0.992       .  S
C4513      C4514   1.402   1_455  A
C4513      C4518   1.405       .  A
C4513      H4523   1.084       .  S
C4514      C4519   1.500       .  S
C4514      C4515   1.413       .  A
C4515      C4516   1.414       .  A
C4515      O4520   1.371       .  S
C4516      C4517   1.407       .  A
C4516      H4521   1.083       .  S
C4517      C4518   1.416   1_655  A
C4518      O4522   1.372       .  S
C4519      C4524   1.412   1_655  A
C4519      C4528   1.403       .  A
O4520      H4536   0.991       .  S
O4522      H4533   0.992       .  S
C4524      C4525   1.414       .  A
C4524      O4529   1.371       .  S
C4525      C4526   1.409   1_455  A
C4525      H4530   1.083       .  S
C4526      C4527   1.416       .  A
C4527      C4528   1.406       .  A
C4527      O4531   1.371       .  S
C4528      H4532   1.084       .  S
O4529      H4534   0.992       .  S
O4531      H4535   0.992       .  S
C4537      C4538   1.411   1_455  A
C4537      C4542   1.412       .  A
C4537      H4547   1.082       .  S
C4538      C4543   1.517       .  S
C4538      C4539   1.416       .  A
C4539      C4540   1.411       .  A
C4539      O4544   1.371       .  S
C4540      C4541   1.409       .  A
C4540      H4545   1.083       .  S
C4541      C4542   1.415   1_655  A
C4542      O4546   1.371       .  S
C4543      C4548   1.415   1_655  A
C4543      C4552   1.410       .  A
O4544      H4560   0.992       .  S
O4546      H4557   0.992       .  S
C4548      C4549   1.413       .  A
C4548      O4553   1.372       .  S
C4549      C4550   1.409   1_455  A
C4549      H4554   1.083       .  S
C4550      C4551   1.416       .  A
C4551      C4552   1.412       .  A
C4551      O4555   1.371       .  S
C4552      H4556   1.083       .  S
O4553      H4558   0.992       .  S
O4555      H4559   0.992       .  S
