geometry optimzed in LAMMPS
_audit_creation_date              2020-11-30 
_audit_creation_method            'lammps2cif' 
_symmetry_space_group_name_H-M    'P1' 
_symmetry_Int_Tables_number       1 
_symmetry_cell_setting            triclinic 
loop_ 
_symmetry_equiv_pos_as_xyz 
  x,y,z 
_cell_length_a                    29.89134152264997 
_cell_length_b                    30.306223481356863 
_cell_length_c                    26.22653909983114 
_cell_angle_alpha                 91.61317595213802 
_cell_angle_beta                  87.17186381559097 
_cell_angle_gamma                 89.59685808511695 
loop_ 
_atom_site_label 
_atom_site_type_symbol 
_atom_site_fract_x 
_atom_site_fract_y 
_atom_site_fract_z 
_atom_site_charge 
O1          O  0.28819017  0.93803730  0.49313589    -0.71770
O2          O  0.28729014  0.06346430  0.00350870    -0.71990
O3          O  0.28770077  0.99810657  0.07062607    -0.71850
O4          O  0.28783188  0.00326676  0.42593175    -0.71860
O5          O  0.21502624  0.00379958  0.42996918    -0.71820
O6          O  0.21490767  0.99791223  0.07456408    -0.71840
O7          O  0.21462553  0.06356181  0.50775752    -0.71780
O8          O  0.21546064  0.93831011  0.99649587    -0.71970
V9          V  0.28633115  0.00075049  0.99835989     1.35240
V10         V  0.21641684  0.00090144  0.00214128     1.35170
C11         C  0.25193042  0.91674681  0.99297911     0.77460
C12         C  0.25082357  0.08496247  0.50745865     0.77520
C13         C  0.25127837  0.99724388  0.09720026     0.77390
C14         C  0.25143237  0.00403085  0.40336184     0.77350
O15         O  0.21487423  0.06287992  0.25036372    -0.71770
O16         O  0.21491630  0.93790665  0.25460933    -0.71990
O17         O  0.21496876  0.00366849  0.32489071    -0.71850
O18         O  0.21484757  0.99724023  0.17989703    -0.71860
O19         O  0.28764718  0.99689480  0.17578598    -0.71820
O20         O  0.28777661  0.00286853  0.32073796    -0.71840
O21         O  0.28763708  0.93721108  0.25024872    -0.71780
O22         O  0.28759921  0.06238661  0.24655836    -0.71970
V23         V  0.21632741  0.00039198  0.25234195     1.35240
V24         V  0.28625242  0.99982852  0.24837760     1.35170
C25         C  0.25119603  0.08399740  0.24760800     0.77460
C26         C  0.25124080  0.91619770  0.25366867     0.77520
C27         C  0.25139516  0.00389199  0.34743282     0.77390
C28         C  0.25124660  0.99672217  0.15319016     0.77350
C29         C  0.20917819  0.20365411  0.00969247     0.03130
C30         C  0.20968624  0.15738427  0.01077018    -0.13020
C31         C  0.25034997  0.13388197  0.01058898     0.00630
C32         C  0.29064382  0.15746026  0.01119422    -0.11540
C33         C  0.29072228  0.20385722  0.00977716     0.03130
C34         C  0.24976661  0.22654073  0.00775904    -0.10960
H35         H  0.17826767  0.13976466  0.01060951     0.08720
H36         H  0.32218248  0.13968977  0.01178229     0.06250
H37         H  0.24939000  0.26193780  0.00309201     0.06100
C38         C  0.29157280  0.20233203  0.24767722     0.03130
C39         C  0.29142668  0.15600690  0.24439231    -0.13020
C40         C  0.25102205  0.13270081  0.24618852     0.00630
C41         C  0.21039132  0.15623867  0.24769995    -0.11540
C42         C  0.20988471  0.20246567  0.24694460     0.03130
C43         C  0.25054971  0.22539011  0.24807273    -0.10960
H44         H  0.32295228  0.13807614  0.24133743     0.08720
H45         H  0.17893372  0.13867469  0.24963806     0.06250
H46         H  0.25019826  0.26116505  0.24946927     0.06100
C47         C  0.29125030  0.79781669  0.99809258     0.03130
C48         C  0.29190324  0.84391772  0.99500674    -0.13020
C49         C  0.25197019  0.86786953  0.99087939     0.00630
C50         C  0.21154962  0.84489631  0.98725461    -0.11540
C51         C  0.20937917  0.79928307  0.99547685     0.03130
C52         C  0.24988047  0.77608477  0.00102083    -0.10960
H53         H  0.32360169  0.86101027  0.99560706     0.08720
H54         H  0.18178646  0.86290325  0.97828969     0.06250
H55         H  0.24955332  0.74093989  0.00744569     0.06100
C56         C  0.29113030  0.79714837  0.25026138     0.03130
C57         C  0.29135075  0.84339707  0.25197122    -0.13020
C58         C  0.25103921  0.86746945  0.25553644     0.00630
C59         C  0.21034950  0.84464916  0.25939317    -0.11540
C60         C  0.20925457  0.79840435  0.25397928     0.03130
C61         C  0.25010386  0.77483808  0.25047528    -0.10840
H62         H  0.32308641  0.86050204  0.25019683     0.08720
H63         H  0.17935595  0.86305541  0.26583359     0.06250
H64         H  0.25013067  0.73910121  0.24785824     0.06100
C65         C  0.45956747  0.70218006  0.00201299     0.03130
C66         C  0.00092841  0.72392570  0.99906460    -0.13020
C67         C  0.04144095  0.70074041  0.00458325     0.00630
C68         C  0.03929185  0.65512465  0.01280206    -0.11540
C69         C  0.99887760  0.63213844  0.00919779     0.03130
C70         C  0.45893276  0.65607884  0.00509600    -0.10960
H71         H  0.00123973  0.75907071  0.99264003     0.08720
H72         H  0.06906703  0.63712604  0.02174410     0.06250
H73         H  0.42723875  0.63897714  0.00451073     0.06100
C74         C  0.45988228  0.70285913  0.24972121     0.03130
C75         C  0.00092503  0.72514235  0.24947983    -0.13020
C76         C  0.04175902  0.70154780  0.24596924     0.00630
C77         C  0.04062729  0.65530277  0.24058384    -0.11540
C78         C  0.99992147  0.63251187  0.24448228     0.03130
C79         C  0.45962805  0.65661114  0.24804790    -0.10960
H80         H  0.00092217  0.76087961  0.25207647     0.08720
H81         H  0.07160423  0.63687288  0.23412642     0.06250
H82         H  0.42788043  0.63952797  0.24984629     0.06100
C83         C  0.46002976  0.29617744  0.99028057     0.03130
C84         C  0.50096883  0.27346888  0.99232788    -0.13020
C85         C  0.04157209  0.29633076  0.99042021     0.00630
C86         C  0.04109515  0.34260051  0.98933623    -0.11540
C87         C  0.50044831  0.36612651  0.98948848     0.03130
C88         C  0.46013948  0.34257312  0.98886097    -0.10960
H89         H  0.50131999  0.23807146  0.99699450     0.08720
H90         H  0.07252378  0.36020181  0.98951433     0.06250
H91         H  0.42861282  0.36036186  0.98825142     0.06100
C92         C  0.45931115  0.29764669  0.25233439     0.03130
C93         C  0.00033666  0.27459293  0.25193860    -0.13020
C94         C  0.04099825  0.29752087  0.25308370     0.00630
C95         C  0.04048504  0.34374840  0.25234831    -0.11540
C96         C  0.99985116  0.36728295  0.25386052     0.03130
C97         C  0.45944962  0.34397216  0.25563491    -0.10960
H98         H  0.00069224  0.23881804  0.25052957     0.08720
H99         H  0.07194089  0.36131570  0.25042303     0.06250
H100        H  0.42792182  0.36189931  0.25868550     0.06100
O101        O  0.03539770  0.56169483  0.00357360    -0.71770
O102        O  0.03629532  0.43645385  0.49230938    -0.71990
O103        O  0.03597481  0.50209586  0.42550590    -0.71850
O104        O  0.03585495  0.49620793  0.07009770    -0.71860
O105        O  0.46304927  0.49673408  0.07413799    -0.71820
O106        O  0.46318172  0.50190498  0.42944035    -0.71840
O107        O  0.46354321  0.43655420  0.99655949    -0.71780
O108        O  0.46269574  0.56196010  0.50694019    -0.71970
V109        V  0.03443408  0.49909861  0.99792910     1.35240
V110        V  0.46451964  0.49926269  0.00171029     1.35170
C111        C  0.49892762  0.58326044  0.00709418     0.77460
C112        C  0.50005043  0.41504569  0.99261018     0.77520
C113        C  0.99960602  0.50276224  0.40286740     0.77390
C114        C  0.99945053  0.49596836  0.09670591     0.77350
O115        O  0.46328206  0.56278893  0.24980861    -0.71770
O116        O  0.46327764  0.43760676  0.25351123    -0.71990
O117        O  0.46324452  0.50310795  0.32427862    -0.71850
O118        O  0.46311349  0.49712659  0.17933038    -0.71860
O119        O  0.03592133  0.49630504  0.17517365    -0.71820
O120        O  0.03604416  0.50273892  0.32017054    -0.71840
O121        O  0.03600259  0.43709788  0.24970448    -0.71780
O122        O  0.03600285  0.56206287  0.24544862    -0.71970
V123        V  0.46464163  0.50016841  0.25168832     1.35240
V124        V  0.03456664  0.49958275  0.24772355     1.35170
C125        C  0.99968895  0.58378608  0.24637930     0.77460
C126        C  0.99967735  0.41598771  0.25245663     0.77520
C127        C  0.99964338  0.50327361  0.34687629     0.77390
C128        C  0.99949303  0.49609629  0.15263385     0.77350
C129        C  0.09106537  0.76419713  0.22032917    -0.09150
C130        C  0.08521898  0.72542943  0.24786184     0.07040
C131        C  0.12052656  0.71127745  0.27769815    -0.02920
C132        C  0.15997449  0.73572163  0.27957019    -0.07370
C133        C  0.16581416  0.77449565  0.25204964     0.06160
C134        C  0.13051676  0.78863634  0.22219517    -0.02390
Br135      Br  0.13401682  0.83975610  0.18096277    -0.02090
H136        H  0.06490486  0.77539396  0.19649294     0.10070
H137        H  0.18613669  0.72452495  0.30340421     0.08090
Br138      Br  0.11705908  0.66013270  0.31889301    -0.02520
C139        C  0.36298284  0.78012334  0.28940162    -0.09150
C140        C  0.33407045  0.77250857  0.24949513     0.07040
C141        C  0.34696605  0.74217269  0.20966737    -0.02920
C142        C  0.38804769  0.71991119  0.21056338    -0.07370
C143        C  0.41695772  0.72752268  0.25047204     0.06160
C144        C  0.40406499  0.75786137  0.29029724    -0.02390
Br145      Br  0.43998308  0.76832469  0.34810373    -0.02090
H146        H  0.35321243  0.80309703  0.32043578     0.10070
H147        H  0.39781621  0.69693366  0.17953224     0.08090
Br148      Br  0.31104707  0.73170062  0.15186332    -0.02520
C149        C  0.16407258  0.73248626  0.47545942    -0.09150
C150        C  0.16559200  0.77528254  0.99738845     0.07040
C151        C  0.12571149  0.79287790  0.02184239    -0.02920
C152        C  0.08672819  0.76756427  0.02456011    -0.07370
C153        C  0.08521939  0.72475502  0.00264650     0.06160
C154        C  0.12508583  0.70717806  0.47816686    -0.02390
Br155      Br  0.13016843  0.64953532  0.44608426    -0.02090
H156        H  0.19354851  0.71843255  0.45533178     0.10070
H157        H  0.05725103  0.78161935  0.04468356     0.08090
Br158      Br  0.12060178  0.85054540  0.05386131    -0.02520
C159        C  0.36453425  0.78350461  0.03625767    -0.09150
C160        C  0.33394519  0.77263986  0.99903552     0.07040
C161        C  0.34524925  0.73886647  0.46239022    -0.02920
C162        C  0.38626986  0.71647408  0.46386787    -0.07370
C163        C  0.41686397  0.72734389  0.00108328     0.06160
C164        C  0.40555418  0.76111122  0.03773463    -0.02390
Br165      Br  0.44353491  0.77625178  0.09248569    -0.02090
H166        H  0.35615276  0.80915078  0.06481973     0.10070
H167        H  0.39465484  0.69083141  0.43530275     0.08090
Br168      Br  0.30727463  0.72373017  0.40763210    -0.02520
C169        C  0.40830770  0.23821118  0.28304398    -0.09150
C170        C  0.41632426  0.27337200  0.25023495     0.07040
C171        C  0.38297760  0.28482845  0.21650378    -0.02920
C172        C  0.34258359  0.26175814  0.21695345    -0.07370
C173        C  0.33456477  0.22660016  0.24976658     0.06160
C174        C  0.36791362  0.21514149  0.28349500    -0.02390
Br175      Br  0.35927631  0.17046179  0.33349778    -0.02090
H176        H  0.43344592  0.22911930  0.30911078     0.10070
H177        H  0.31744650  0.27084874  0.19088471     0.08090
Br178      Br  0.39161968  0.32950802  0.16650243    -0.02520
C179        C  0.09370902  0.24093829  0.21392570    -0.09150
C180        C  0.08421774  0.27320950  0.25243775     0.07040
C181        C  0.11645267  0.28217628  0.28888356    -0.02920
C182        C  0.15717784  0.25905199  0.28609876    -0.07370
C183        C  0.16666817  0.22678031  0.24758759     0.06160
C184        C  0.13443266  0.21781137  0.21114366    -0.02390
Br185      Br  0.14479740  0.17606707  0.15517190    -0.02090
H186        H  0.06957319  0.23422159  0.18525508     0.10070
H187        H  0.18131397  0.26576798  0.31476929     0.08090
Br188      Br  0.10608346  0.32390805  0.34486653    -0.02520
C189        C  0.38324234  0.28781274  0.02949764    -0.09150
C190        C  0.41686405  0.27211703  0.99426359     0.07040
C191        C  0.40854815  0.23380446  0.46446013    -0.02920
C192        C  0.36757848  0.21223100  0.47052810    -0.07370
C193        C  0.33387221  0.22794290  0.00576581     0.06160
C194        C  0.34227292  0.26623859  0.03556601    -0.02390
Br195      Br  0.30080731  0.28978223  0.08725942    -0.02090
H196        H  0.38912493  0.31684057  0.05312251     0.10070
H197        H  0.36169686  0.18320209  0.44690429     0.08090
Br198      Br  0.45001602  0.21026116  0.41276998    -0.02520
C199        C  0.11151919  0.28354451  0.03489754    -0.09150
C200        C  0.08443436  0.27231738  0.99442356     0.07040
C201        C  0.09875697  0.23839741  0.45925494    -0.02920
C202        C  0.13929907  0.21643271  0.46521181    -0.07370
C203        C  0.16629913  0.22764379  0.00571193     0.06160
C204        C  0.15206326  0.26158274  0.04085192    -0.02390
Br205      Br  0.18484853  0.27800614  0.09925529    -0.02090
H206        H  0.10068511  0.30914940  0.06254638     0.10070
H207        H  0.15013473  0.19083019  0.43756074     0.08090
Br208      Br  0.06598162  0.22198815  0.40083909    -0.02520
O209        O  0.28817686  0.93804373  0.99313599    -0.71770
O210        O  0.28733344  0.06345617  0.50350579    -0.71990
O211        O  0.28772595  0.99809920  0.57062623    -0.71850
O212        O  0.28780493  0.00327465  0.92593464    -0.71860
O213        O  0.21499933  0.00379070  0.92996860    -0.71820
O214        O  0.21493267  0.99791991  0.57456109    -0.71840
O215        O  0.21458237  0.06355263  0.00775942    -0.71780
O216        O  0.21547387  0.93831810  0.49649500    -0.71970
V217        V  0.28635850  0.00074334  0.49835848     1.35240
V218        V  0.21644406  0.00090976  0.50214002     1.35170
C219        C  0.25193955  0.91674768  0.49297923     0.77460
C220        C  0.25077474  0.08496195  0.00746212     0.77520
C221        C  0.25130189  0.99724306  0.59719877     0.77390
C222        C  0.25140655  0.00403069  0.90336286     0.77350
O223        O  0.21487256  0.06287778  0.75035343    -0.71770
O224        O  0.21491498  0.93790452  0.75460121    -0.71990
O225        O  0.21495337  0.00366655  0.82488325    -0.71850
O226        O  0.21486004  0.99723805  0.67988796    -0.71860
O227        O  0.28765969  0.99689017  0.67579238    -0.71820
O228        O  0.28776121  0.00287096  0.82074570    -0.71840
O229        O  0.28763580  0.93720987  0.75026016    -0.71780
O230        O  0.28759751  0.06238505  0.74656039    -0.71970
V231        V  0.21632593  0.00038986  0.75233346     1.35240
V232        V  0.28625095  0.99982723  0.74838458     1.35170
C233        C  0.25119438  0.08399537  0.74760071     0.77460
C234        C  0.25123939  0.91619606  0.75367122     0.77520
C235        C  0.25137569  0.00389226  0.84743328     0.77390
C236        C  0.25126326  0.99671937  0.65318871     0.77350
C237        C  0.20925855  0.20366367  0.50967138     0.03130
C238        C  0.20975475  0.15739430  0.51075523    -0.13020
C239        C  0.25041209  0.13388246  0.51058178     0.00630
C240        C  0.29071212  0.15745104  0.51119008    -0.11540
C241        C  0.29080238  0.20384782  0.50976874     0.03130
C242        C  0.24985252  0.22654044  0.50774059    -0.10960
H243        H  0.17833183  0.13978228  0.51059255     0.08720
H244        H  0.32224602  0.13967313  0.51178486     0.06250
H245        H  0.24948471  0.26193700  0.50306891     0.06100
C246        C  0.29157296  0.20232919  0.74766238     0.03130
C247        C  0.29142555  0.15600403  0.74437321    -0.13020
C248        C  0.25102066  0.13269849  0.74617479     0.00630
C249        C  0.21039033  0.15623682  0.74768658    -0.11540
C250        C  0.20988488  0.20246377  0.74693388     0.03130
C251        C  0.25054982  0.22538780  0.74806330    -0.10960
H252        H  0.32295043  0.13807239  0.74131186     0.08720
H253        H  0.17893221  0.13867359  0.74962368     0.06250
H254        H  0.25019793  0.26116271  0.74946449     0.06100
C255        C  0.29124569  0.79781425  0.49809387     0.03130
C256        C  0.29190265  0.84391491  0.49500785    -0.13020
C257        C  0.25197195  0.86787065  0.49088085     0.00630
C258        C  0.21154885  0.84490175  0.48725713    -0.11540
C259        C  0.20937479  0.79928809  0.49547659     0.03130
C260        C  0.24987404  0.77608589  0.50102003    -0.10960
H261        H  0.32360287  0.86100430  0.49560838     0.08720
H262        H  0.18178704  0.86291205  0.47829462     0.06250
H263        H  0.24954364  0.74094079  0.50744352     0.06100
C264        C  0.29112769  0.79714613  0.75026946     0.03130
C265        C  0.29134874  0.84339491  0.75197715    -0.13020
C266        C  0.25103747  0.86746784  0.75554127     0.00630
C267        C  0.21034748  0.84464810  0.75939927    -0.11540
C268        C  0.20925193  0.79840311  0.75398845     0.03130
C269        C  0.25010090  0.77483629  0.75048531    -0.10840
H270        H  0.32308459  0.86049949  0.75020144     0.08720
H271        H  0.17935412  0.86305487  0.76583865     0.06250
H272        H  0.25012712  0.73909935  0.74787031     0.06100
C273        C  0.45956291  0.70217889  0.50201991     0.03130
C274        C  0.00092165  0.72392877  0.49907085    -0.13020
C275        C  0.04143641  0.70074712  0.50458667     0.00630
C276        C  0.03929199  0.65513141  0.51280594    -0.11540
C277        C  0.99888016  0.63214079  0.50920245     0.03130
C278        C  0.45893269  0.65607719  0.50510177    -0.10960
H279        H  0.00122971  0.75907400  0.49264732     0.08720
H280        H  0.06906998  0.63713608  0.52174571     0.06250
H281        H  0.42724057  0.63897214  0.50451637     0.06100
C282        C  0.45987974  0.70285600  0.74972850     0.03130
C283        C  0.00092199  0.72513995  0.74948962    -0.13020
C284        C  0.04175645  0.70154635  0.74598119     0.00630
C285        C  0.04062621  0.65530126  0.74059551    -0.11540
C286        C  0.99992068  0.63250936  0.74448869     0.03130
C287        C  0.45962662  0.65660790  0.74805254    -0.10960
H288        H  0.00091849  0.76087722  0.75208663     0.08720
H289        H  0.07160404  0.63687221  0.73414128     0.06250
H290        H  0.42787938  0.63952400  0.74984818     0.06100
C291        C  0.46011064  0.29616840  0.49026824     0.03130
C292        C  0.50105565  0.27346969  0.49230954    -0.13020
C293        C  0.04165329  0.29634144  0.49039852     0.00630
C294        C  0.04116464  0.34261155  0.48931909    -0.11540
C295        C  0.50051148  0.36612790  0.48947655     0.03130
C296        C  0.46020896  0.34256442  0.48884969    -0.10960
H297        H  0.50141611  0.23807232  0.49697559     0.08720
H298        H  0.07258890  0.36022042  0.48949612     0.06250
H299        H  0.42867792  0.36034592  0.48824342     0.06100
C300        C  0.45931292  0.29764346  0.75232619     0.03130
C301        C  0.00033855  0.27458946  0.75192574    -0.13020
C302        C  0.04099971  0.29751709  0.75307755     0.00630
C303        C  0.04048724  0.34374482  0.75234989    -0.11540
C304        C  0.99985355  0.36727959  0.75386202     0.03130
C305        C  0.45945196  0.34396885  0.75563527    -0.10960
H306        H  0.00069486  0.23881462  0.75050897     0.08720
H307        H  0.07194342  0.36131181  0.75042990     0.06250
H308        H  0.42792458  0.36189640  0.75869148     0.06100
O309        O  0.03541186  0.56170408  0.50357435    -0.71770
O310        O  0.03625127  0.43644344  0.99231380    -0.71990
O311        O  0.03594878  0.50208473  0.92550907    -0.71850
O312        O  0.03588263  0.49621646  0.57009787    -0.71860
O313        O  0.46307701  0.49672527  0.57413442    -0.71820
O314        O  0.46315550  0.50190840  0.92944040    -0.71840
O315        O  0.46358744  0.43654725  0.49655323    -0.71780
O316        O  0.46268149  0.56196534  0.00693820    -0.71970
V317        V  0.03446222  0.49910824  0.49792749     1.35240
V318        V  0.46454793  0.49925682  0.50170837     1.35170
C319        C  0.49893768  0.58326253  0.50709655     0.77460
C320        C  0.50010019  0.41504733  0.49260297     0.77520
C321        C  0.99958147  0.50275808  0.90286899     0.77390
C322        C  0.99947706  0.49596759  0.59670437     0.77350
O323        O  0.46328226  0.56278495  0.74980042    -0.71770
O324        O  0.46327979  0.43760283  0.75350474    -0.71990
O325        O  0.46323126  0.50310481  0.82427184    -0.71850
O326        O  0.46312916  0.49712160  0.67932192    -0.71860
O327        O  0.03593698  0.49630525  0.67518100    -0.71820
O328        O  0.03603093  0.50273429  0.82017976    -0.71840
O329        O  0.03600466  0.43709529  0.74971110    -0.71780
O330        O  0.03600310  0.56206094  0.74546056    -0.71970
V331        V  0.46464284  0.50016441  0.75168079     1.35240
V332        V  0.03456784  0.49958046  0.74773207     1.35170
C333        C  0.99968895  0.58378325  0.74638248     0.77460
C334        C  0.99967963  0.41598443  0.75245758     0.77520
C335        C  0.99962584  0.50326944  0.84687767     0.77390
C336        C  0.99951293  0.49609432  0.65263293     0.77350
C337        C  0.09106278  0.76419504  0.72033937    -0.09150
C338        C  0.08521557  0.72542914  0.74787507     0.07040
C339        C  0.12052176  0.71127942  0.77771454    -0.02920
C340        C  0.15997022  0.73572306  0.77958511    -0.07370
C341        C  0.16581110  0.77449491  0.75206069     0.06160
C342        C  0.13051431  0.78863410  0.72220440    -0.02390
Br343      Br  0.13401554  0.83975126  0.68096791    -0.02090
H344        H  0.06490291  0.77539035  0.69650135     0.10070
H345        H  0.18613177  0.72452786  0.80342094     0.08090
Br346      Br  0.11705027  0.66013902  0.81891604    -0.02520
C347        C  0.36298055  0.78012094  0.78940906    -0.09150
C348        C  0.33406761  0.77250578  0.74950323     0.07040
C349        C  0.34696250  0.74216906  0.70967605    -0.02920
C350        C  0.38804401  0.71990718  0.71057193    -0.07370
C351        C  0.41695469  0.72751911  0.75047990     0.06160
C352        C  0.40406251  0.75785859  0.79030462    -0.02390
Br353      Br  0.43998108  0.76832286  0.84811053    -0.02090
H354        H  0.35321071  0.80309528  0.82044277     0.10070
H355        H  0.39781200  0.69692922  0.67954103     0.08090
Br356      Br  0.31104276  0.73169650  0.65187277    -0.02520
C357        C  0.16408064  0.73247611  0.97546753    -0.09150
C358        C  0.16558619  0.77529046  0.49738574     0.07040
C359        C  0.12570704  0.79288551  0.52184311    -0.02920
C360        C  0.08672309  0.76757251  0.52456108    -0.07370
C361        C  0.08521317  0.72476422  0.50264499     0.06160
C362        C  0.12509418  0.70716710  0.97817470    -0.02390
Br363      Br  0.13018125  0.64952092  0.94610110    -0.02090
H364        H  0.19355785  0.71842140  0.95534359     0.10070
H365        H  0.05724680  0.78162668  0.54468726     0.08090
Br366      Br  0.12060125  0.85055128  0.55386684    -0.02520
C367        C  0.36452604  0.78349874  0.53626477    -0.09150
C368        C  0.33393878  0.77263490  0.49904034     0.07040
C369        C  0.34525426  0.73887085  0.96238558    -0.02920
C370        C  0.38627486  0.71647837  0.96386167    -0.07370
C371        C  0.41685748  0.72733943  0.50109117     0.06160
C372        C  0.40554597  0.76110577  0.53774309    -0.02390
Br373      Br  0.44352524  0.77624681  0.59249541    -0.02090
H374        H  0.35614357  0.80914468  0.56482678     0.10070
H375        H  0.39465825  0.69083472  0.93529720     0.08090
Br376      Br  0.30727702  0.72373269  0.90763041    -0.02520
C377        C  0.40831537  0.23819596  0.78301733    -0.09150
C378        C  0.41632577  0.27336874  0.75022368     0.07040
C379        C  0.38297291  0.28483641  0.71650515    -0.02920
C380        C  0.34257877  0.26176602  0.71695382    -0.07370
C381        C  0.33456577  0.22659664  0.74975256     0.06160
C382        C  0.36792099  0.21512679  0.78346822    -0.02390
Br383      Br  0.35929250  0.17043297  0.83345631    -0.02090
H384        H  0.43345905  0.22909382  0.80907267     0.10070
H385        H  0.31743659  0.27086625  0.69089567     0.08090
Br386      Br  0.39160661  0.32953157  0.66652054    -0.02520
C387        C  0.09371613  0.24094621  0.71390684    -0.09150
C388        C  0.08421842  0.27320537  0.75243064     0.07040
C389        C  0.11644626  0.28216050  0.78888775    -0.02920
C390        C  0.15717232  0.25903787  0.78610145    -0.07370
C391        C  0.16666909  0.22677850  0.74757834     0.06160
C392        C  0.13444019  0.21782024  0.71112403    -0.02390
Br393      Br  0.14481500  0.17609051  0.65513995    -0.02090
H394        H  0.06958495  0.23423810  0.68522867     0.10070
H395        H  0.18130388  0.26574510  0.81477948     0.08090
Br396      Br  0.10606528  0.32387425  0.84488609    -0.02520
C397        C  0.38332818  0.28779553  0.52949374    -0.09150
C398        C  0.41695018  0.27209904  0.49426035     0.07040
C399        C  0.40845925  0.23382817  0.96445572    -0.02920
C400        C  0.36748886  0.21225611  0.97051958    -0.07370
C401        C  0.33395800  0.22792488  0.50576529     0.06160
C402        C  0.34235797  0.26622323  0.53556075    -0.02390
Br403      Br  0.30088717  0.28977634  0.58724240    -0.02090
H404        H  0.38920956  0.31682510  0.55311649     0.10070
H405        H  0.36160514  0.18323161  0.94688897     0.08090
Br406      Br  0.44992838  0.21028960  0.91276508    -0.02520
C407        C  0.11160672  0.28356403  0.53486840    -0.09150
C408        C  0.08452141  0.27233645  0.49439486     0.07040
C409        C  0.09866891  0.23837698  0.95928503    -0.02920
C410        C  0.13921071  0.21641165  0.96524275    -0.07370
C411        C  0.16638558  0.22766198  0.50568347     0.06160
C412        C  0.15214994  0.26160065  0.54082387    -0.02390
Br413      Br  0.18493081  0.27801609  0.59923337    -0.02090
H414        H  0.10077158  0.30916724  0.56251885     0.10070
H415        H  0.15004674  0.19080957  0.93759130     0.08090
Br416      Br  0.06589648  0.22197194  0.90086549    -0.02520
O417        O  0.78819019  0.93803728  0.49313590    -0.71770
O418        O  0.78729013  0.06346428  0.00350869    -0.71990
O419        O  0.78770077  0.99810657  0.07062608    -0.71850
O420        O  0.78783189  0.00326674  0.42593176    -0.71860
O421        O  0.71502624  0.00379955  0.42996919    -0.71820
O422        O  0.71490767  0.99791222  0.07456410    -0.71840
O423        O  0.71462553  0.06356177  0.50775754    -0.71780
O424        O  0.71546065  0.93831009  0.99649590    -0.71970
V425        V  0.78633115  0.00075048  0.99835990     1.35240
V426        V  0.71641684  0.00090142  0.00214129     1.35170
C427        C  0.75193043  0.91674679  0.99297914     0.77460
C428        C  0.75082357  0.08496244  0.50745867     0.77520
C429        C  0.75127837  0.99724388  0.09720028     0.77390
C430        C  0.75143238  0.00403083  0.40336186     0.77350
O431        O  0.71487423  0.06287991  0.25036375    -0.71770
O432        O  0.71491631  0.93790664  0.25460933    -0.71990
O433        O  0.71496877  0.00366847  0.32489073    -0.71850
O434        O  0.71484757  0.99724022  0.17989705    -0.71860
O435        O  0.78764718  0.99689480  0.17578599    -0.71820
O436        O  0.78777661  0.00286851  0.32073797    -0.71840
O437        O  0.78763708  0.93721107  0.25024873    -0.71780
O438        O  0.78759921  0.06238660  0.24655838    -0.71970
V439        V  0.71632741  0.00039197  0.25234196     1.35240
V440        V  0.78625242  0.99982851  0.24837761     1.35170
C441        C  0.75119603  0.08399738  0.24760803     0.77460
C442        C  0.75124081  0.91619769  0.25366868     0.77520
C443        C  0.75139517  0.00389197  0.34743284     0.77390
C444        C  0.75124660  0.99672217  0.15319018     0.77350
C445        C  0.70917818  0.20365409  0.00969242     0.03130
C446        C  0.70968623  0.15738425  0.01077012    -0.13020
C447        C  0.75034995  0.13388195  0.01058894     0.00630
C448        C  0.79064380  0.15746024  0.01119418    -0.11540
C449        C  0.79072227  0.20385720  0.00977712     0.03130
C450        C  0.74976660  0.22654072  0.00775900    -0.10960
H451        H  0.67826766  0.13976464  0.01060944     0.08720
H452        H  0.82218247  0.13968975  0.01178226     0.06250
H453        H  0.74938999  0.26193778  0.00309198     0.06100
C454        C  0.79157280  0.20233202  0.24767724     0.03130
C455        C  0.79142667  0.15600689  0.24439232    -0.13020
C456        C  0.75102205  0.13270080  0.24618856     0.00630
C457        C  0.71039131  0.15623866  0.24770001    -0.11540
C458        C  0.70988470  0.20246566  0.24694465     0.03130
C459        C  0.75054970  0.22539010  0.24807277    -0.10960
H460        H  0.82295227  0.13807613  0.24133743     0.08720
H461        H  0.67893372  0.13867468  0.24963814     0.06250
H462        H  0.75019826  0.26116504  0.24946930     0.06100
C463        C  0.79125030  0.79781667  0.99809266     0.03130
C464        C  0.79190325  0.84391770  0.99500681    -0.13020
C465        C  0.75197020  0.86786951  0.99087944     0.00630
C466        C  0.71154964  0.84489629  0.98725465    -0.11540
C467        C  0.70937918  0.79928306  0.99547691     0.03130
C468        C  0.74988047  0.77608476  0.00102091    -0.10960
H469        H  0.82360170  0.86101025  0.99560713     0.08720
H470        H  0.68178648  0.86290323  0.97828970     0.06250
H471        H  0.74955332  0.74093988  0.00744579     0.06100
C472        C  0.79113030  0.79714835  0.25026140     0.03130
C473        C  0.79135075  0.84339706  0.25197124    -0.13020
C474        C  0.75103921  0.86746943  0.25553644     0.00630
C475        C  0.71034950  0.84464915  0.25939316    -0.11540
C476        C  0.70925458  0.79840434  0.25397928     0.03130
C477        C  0.75010386  0.77483807  0.25047530    -0.10840
H478        H  0.82308641  0.86050202  0.25019686     0.08720
H479        H  0.67935595  0.86305540  0.26583357     0.06250
H480        H  0.75013067  0.73910120  0.24785827     0.06100
C481        C  0.95956748  0.70218003  0.00201304     0.03130
C482        C  0.50092840  0.72392572  0.99906457    -0.13020
C483        C  0.54144094  0.70074042  0.00458326     0.00630
C484        C  0.53929183  0.65512467  0.01280208    -0.11540
C485        C  0.49887758  0.63213846  0.00919779     0.03130
C486        C  0.95893278  0.65607882  0.00509603    -0.10960
H487        H  0.50123973  0.75907072  0.99263999     0.08720
H488        H  0.56906700  0.63712605  0.02174416     0.06250
H489        H  0.92723877  0.63897712  0.00451078     0.06100
C490        C  0.95988229  0.70285912  0.24972124     0.03130
C491        C  0.50092503  0.72514236  0.24947979    -0.13020
C492        C  0.54175902  0.70154781  0.24596921     0.00630
C493        C  0.54062729  0.65530278  0.24058382    -0.11540
C494        C  0.49992146  0.63251188  0.24448226     0.03130
C495        C  0.95962805  0.65661113  0.24804793    -0.10960
H496        H  0.50092217  0.76087963  0.25207643     0.08720
H497        H  0.57160422  0.63687289  0.23412642     0.06250
H498        H  0.92788044  0.63952796  0.24984632     0.06100
C499        C  0.96002974  0.29617742  0.99028059     0.03130
C500        C  0.00096880  0.27346885  0.99232788    -0.13020
C501        C  0.54157211  0.29633079  0.99042019     0.00630
C502        C  0.54109516  0.34260055  0.98933621    -0.11540
C503        C  0.00044830  0.36612649  0.98948850     0.03130
C504        C  0.96013946  0.34257310  0.98886099    -0.10960
H505        H  0.00131995  0.23807143  0.99699450     0.08720
H506        H  0.57252379  0.36020184  0.98951430     0.06250
H507        H  0.92861281  0.36036184  0.98825146     0.06100
C508        C  0.95931115  0.29764668  0.25233437     0.03130
C509        C  0.50033666  0.27459295  0.25193865    -0.13020
C510        C  0.54099825  0.29752089  0.25308374     0.00630
C511        C  0.54048504  0.34374842  0.25234832    -0.11540
C512        C  0.49985116  0.36728296  0.25386052     0.03130
C513        C  0.95944962  0.34397215  0.25563490    -0.10960
H514        H  0.50069224  0.23881805  0.25052963     0.08720
H515        H  0.57194089  0.36131572  0.25042303     0.06250
H516        H  0.92792182  0.36189929  0.25868551     0.06100
O517        O  0.53539768  0.56169486  0.00357360    -0.71770
O518        O  0.53629533  0.43645387  0.49230938    -0.71990
O519        O  0.53597481  0.50209587  0.42550588    -0.71850
O520        O  0.53585494  0.49620795  0.07009768    -0.71860
O521        O  0.96304927  0.49673406  0.07413801    -0.71820
O522        O  0.96318172  0.50190498  0.42944036    -0.71840
O523        O  0.96354321  0.43655418  0.99655951    -0.71780
O524        O  0.96269575  0.56196009  0.50694022    -0.71970
V525        V  0.53443407  0.49909863  0.99792908     1.35240
V526        V  0.96451965  0.49926267  0.00171031     1.35170
C527        C  0.99892764  0.58326042  0.00709418     0.77460
C528        C  0.00005042  0.41504566  0.99261021     0.77520
C529        C  0.49960601  0.50276225  0.40286739     0.77390
C530        C  0.49945053  0.49596837  0.09670590     0.77350
O531        O  0.96328207  0.56278892  0.24980862    -0.71770
O532        O  0.96327764  0.43760675  0.25351124    -0.71990
O533        O  0.96324452  0.50310794  0.32427864    -0.71850
O534        O  0.96311349  0.49712658  0.17933039    -0.71860
O535        O  0.53592132  0.49630505  0.17517363    -0.71820
O536        O  0.53604416  0.50273893  0.32017052    -0.71840
O537        O  0.53600258  0.43709790  0.24970446    -0.71780
O538        O  0.53600284  0.56206289  0.24544860    -0.71970
V539        V  0.96464163  0.50016840  0.25168834     1.35240
V540        V  0.53456664  0.49958276  0.24772353     1.35170
C541        C  0.49968895  0.58378609  0.24637928     0.77460
C542        C  0.49967735  0.41598773  0.25245662     0.77520
C543        C  0.49964338  0.50327362  0.34687627     0.77390
C544        C  0.49949303  0.49609630  0.15263383     0.77350
C545        C  0.59106539  0.76419712  0.22032913    -0.09150
C546        C  0.58521897  0.72542943  0.24786183     0.07040
C547        C  0.62052654  0.71127747  0.27769817    -0.02920
C548        C  0.65997447  0.73572163  0.27957021    -0.07370
C549        C  0.66581417  0.77449564  0.25204963     0.06160
C550        C  0.63051678  0.78863632  0.22219513    -0.02390
Br551      Br  0.63401688  0.83975606  0.18096269    -0.02090
H552        H  0.56490489  0.77539394  0.19649289     0.10070
H553        H  0.68613667  0.72452496  0.30340425     0.08090
Br554      Br  0.61705902  0.66013274  0.31889306    -0.02520
C555        C  0.86298284  0.78012333  0.28940166    -0.09150
C556        C  0.83407045  0.77250855  0.24949516     0.07040
C557        C  0.84696606  0.74217267  0.20966740    -0.02920
C558        C  0.88804770  0.71991117  0.21056341    -0.07370
C559        C  0.91695772  0.72752267  0.25047208     0.06160
C560        C  0.90406499  0.75786135  0.29029728    -0.02390
Br561      Br  0.93998307  0.76832467  0.34810376    -0.02090
H562        H  0.85321242  0.80309701  0.32043581     0.10070
H563        H  0.89781621  0.69693364  0.17953227     0.08090
Br564      Br  0.81104707  0.73170060  0.15186335    -0.02520
C565        C  0.66407259  0.73248625  0.47545942    -0.09150
C566        C  0.66559201  0.77528254  0.99738850     0.07040
C567        C  0.62571148  0.79287791  0.02184240    -0.02920
C568        C  0.58672818  0.76756429  0.02456010    -0.07370
C569        C  0.58521938  0.72475503  0.00264653     0.06160
C570        C  0.62508584  0.70717805  0.47816685    -0.02390
Br571      Br  0.63016844  0.64953530  0.44608429    -0.02090
H572        H  0.69354853  0.71843252  0.45533181     0.10070
H573        H  0.55725101  0.78161938  0.04468352     0.08090
Br574      Br  0.62060176  0.85054543  0.05386126    -0.02520
C575        C  0.86453426  0.78350459  0.03625775    -0.09150
C576        C  0.83394520  0.77263983  0.99903560     0.07040
C577        C  0.84524926  0.73886643  0.46239029    -0.02920
C578        C  0.88626987  0.71647406  0.46386794    -0.07370
C579        C  0.91686398  0.72734386  0.00108334     0.06160
C580        C  0.90555419  0.76111119  0.03773470    -0.02390
Br581      Br  0.94353493  0.77625174  0.09248574    -0.02090
H582        H  0.85615278  0.80915075  0.06481981     0.10070
H583        H  0.89465485  0.69083139  0.43530282     0.08090
Br584      Br  0.80727465  0.72373014  0.40763216    -0.02520
C585        C  0.90830771  0.23821116  0.28304395    -0.09150
C586        C  0.91632426  0.27337199  0.25023494     0.07040
C587        C  0.88297758  0.28482845  0.21650379    -0.02920
C588        C  0.84258357  0.26175814  0.21695347    -0.07370
C589        C  0.83456477  0.22660014  0.24976659     0.06160
C590        C  0.86791363  0.21514147  0.28349498    -0.02390
Br591      Br  0.85927634  0.17046176  0.33349775    -0.02090
H592        H  0.93344594  0.22911927  0.30911074     0.10070
H593        H  0.81744647  0.27084874  0.19088475     0.08090
Br594      Br  0.89161964  0.32950804  0.16650245    -0.02520
C595        C  0.59370900  0.24093827  0.21392578    -0.09150
C596        C  0.58421774  0.27320951  0.25243780     0.07040
C597        C  0.61645269  0.28217632  0.28888357    -0.02920
C598        C  0.65717786  0.25905201  0.28609878    -0.07370
C599        C  0.66666816  0.22678030  0.24758765     0.06160
C600        C  0.63443263  0.21781133  0.21114374    -0.02390
Br601      Br  0.64479734  0.17606699  0.15517201    -0.02090
H602        H  0.56957316  0.23422155  0.18525518     0.10070
H603        H  0.68131400  0.26576802  0.31476929     0.08090
Br604      Br  0.60608352  0.32390814  0.34486650    -0.02520
C605        C  0.88324232  0.28781270  0.02949766    -0.09150
C606        C  0.91686403  0.27211702  0.99426359     0.07040
C607        C  0.90854813  0.23380444  0.46446012    -0.02920
C608        C  0.86757846  0.21223098  0.47052809    -0.07370
C609        C  0.83387219  0.22794288  0.00576578     0.06160
C610        C  0.84227290  0.26623855  0.03556601    -0.02390
Br611      Br  0.80080729  0.28978216  0.08725945    -0.02090
H612        H  0.88912492  0.31684051  0.05312255     0.10070
H613        H  0.86169684  0.18320206  0.44690430     0.08090
Br614      Br  0.95001600  0.21026113  0.41276996    -0.02520
C615        C  0.61151918  0.28354449  0.03489754    -0.09150
C616        C  0.58443438  0.27231741  0.99442352     0.07040
C617        C  0.59875698  0.23839745  0.45925494    -0.02920
C618        C  0.63929908  0.21643273  0.46521180    -0.07370
C619        C  0.66629912  0.22764378  0.00571189     0.06160
C620        C  0.65206324  0.26158270  0.04085191    -0.02390
Br621      Br  0.68484850  0.27800602  0.09925533    -0.02090
H622        H  0.60068510  0.30914935  0.06254642     0.10070
H623        H  0.65013474  0.19083023  0.43756070     0.08090
Br624      Br  0.56598165  0.22198826  0.40083905    -0.02520
O625        O  0.78817687  0.93804372  0.99313602    -0.71770
O626        O  0.78733344  0.06345615  0.50350581    -0.71990
O627        O  0.78772596  0.99809918  0.57062625    -0.71850
O628        O  0.78780493  0.00327462  0.92593465    -0.71860
O629        O  0.71499933  0.00379066  0.92996861    -0.71820
O630        O  0.71493267  0.99791987  0.57456110    -0.71840
O631        O  0.71458236  0.06355261  0.00775941    -0.71780
O632        O  0.71547389  0.93831807  0.49649501    -0.71970
V633        V  0.78635851  0.00074331  0.49835849     1.35240
V634        V  0.71644407  0.00090973  0.50214004     1.35170
C635        C  0.75193956  0.91674765  0.49297924     0.77460
C636        C  0.75077472  0.08496194  0.00746210     0.77520
C637        C  0.75130189  0.99724302  0.59719878     0.77390
C638        C  0.75140655  0.00403065  0.90336288     0.77350
O639        O  0.71487255  0.06287772  0.75035344    -0.71770
O640        O  0.71491499  0.93790447  0.75460122    -0.71990
O641        O  0.71495337  0.00366649  0.82488326    -0.71850
O642        O  0.71486005  0.99723800  0.67988797    -0.71860
O643        O  0.78765969  0.99689013  0.67579239    -0.71820
O644        O  0.78776121  0.00287092  0.82074572    -0.71840
O645        O  0.78763581  0.93720983  0.75026018    -0.71780
O646        O  0.78759749  0.06238500  0.74656039    -0.71970
V647        V  0.71632593  0.00038980  0.75233347     1.35240
V648        V  0.78625095  0.99982718  0.74838459     1.35170
C649        C  0.75119436  0.08399533  0.74760072     0.77460
C650        C  0.75123940  0.91619601  0.75367124     0.77520
C651        C  0.75137569  0.00389222  0.84743329     0.77390
C652        C  0.75126326  0.99671932  0.65318872     0.77350
C653        C  0.70925853  0.20366364  0.50967138     0.03130
C654        C  0.70975474  0.15739426  0.51075524    -0.13020
C655        C  0.75041208  0.13388243  0.51058179     0.00630
C656        C  0.79071211  0.15745101  0.51119008    -0.11540
C657        C  0.79080236  0.20384780  0.50976873     0.03130
C658        C  0.74985250  0.22654041  0.50774058    -0.10960
H659        H  0.67833182  0.13978225  0.51059256     0.08720
H660        H  0.82224601  0.13967311  0.51178487     0.06250
H661        H  0.74948468  0.26193697  0.50306890     0.06100
C662        C  0.79157295  0.20232913  0.74766230     0.03130
C663        C  0.79142553  0.15600398  0.74437315    -0.13020
C664        C  0.75102064  0.13269844  0.74617478     0.00630
C665        C  0.71039031  0.15623677  0.74768659    -0.11540
C666        C  0.70988486  0.20246372  0.74693386     0.03130
C667        C  0.75054981  0.22538775  0.74806323    -0.10960
H668        H  0.82295041  0.13807233  0.74131179     0.08720
H669        H  0.67893219  0.13867355  0.74962373     0.06250
H670        H  0.75019793  0.26116266  0.74946440     0.06100
C671        C  0.79124569  0.79781422  0.49809391     0.03130
C672        C  0.79190266  0.84391488  0.49500789    -0.13020
C673        C  0.75197197  0.86787063  0.49088086     0.00630
C674        C  0.71154888  0.84490173  0.48725711    -0.11540
C675        C  0.70937480  0.79928808  0.49547659     0.03130
C676        C  0.74987404  0.77608587  0.50102006    -0.10960
H677        H  0.82360289  0.86100427  0.49560843     0.08720
H678        H  0.68178707  0.86291203  0.47829456     0.06250
H679        H  0.74954363  0.74094078  0.50744356     0.06100
C680        C  0.79112771  0.79714608  0.75026954     0.03130
C681        C  0.79134876  0.84339486  0.75197721    -0.13020
C682        C  0.75103749  0.86746779  0.75554130     0.00630
C683        C  0.71034749  0.84464805  0.75939927    -0.11540
C684        C  0.70925195  0.79840307  0.75398848     0.03130
C685        C  0.75010091  0.77483624  0.75048538    -0.10840
H686        H  0.82308461  0.86049944  0.75020151     0.08720
H687        H  0.67935414  0.86305483  0.76583861     0.06250
H688        H  0.75012712  0.73909930  0.74787041     0.06100
C689        C  0.95956291  0.70217887  0.50201999     0.03130
C690        C  0.50092164  0.72392879  0.49907077    -0.13020
C691        C  0.54143640  0.70074713  0.50458661     0.00630
C692        C  0.53929198  0.65513143  0.51280590    -0.11540
C693        C  0.49888014  0.63214080  0.50920240     0.03130
C694        C  0.95893270  0.65607717  0.50510183    -0.10960
H695        H  0.50122970  0.75907401  0.49264722     0.08720
H696        H  0.56906995  0.63713610  0.52174569     0.06250
H697        H  0.92724058  0.63897212  0.50451644     0.06100
C698        C  0.95987975  0.70285594  0.74972858     0.03130
C699        C  0.50092198  0.72514001  0.74948955    -0.13020
C700        C  0.54175644  0.70154640  0.74598116     0.00630
C701        C  0.54062619  0.65530130  0.74059551    -0.11540
C702        C  0.49992066  0.63250940  0.74448867     0.03130
C703        C  0.95962664  0.65660784  0.74805261    -0.10960
H704        H  0.50091848  0.76087728  0.75208653     0.08720
H705        H  0.57160403  0.63687225  0.73414132     0.06250
H706        H  0.92787940  0.63952395  0.74984826     0.06100
C707        C  0.96011062  0.29616838  0.49026820     0.03130
C708        C  0.00105563  0.27346967  0.49230950    -0.13020
C709        C  0.54165330  0.29634146  0.49039857     0.00630
C710        C  0.54116466  0.34261157  0.48931914    -0.11540
C711        C  0.00051146  0.36612788  0.48947652     0.03130
C712        C  0.96020895  0.34256441  0.48884966    -0.10960
H713        H  0.00141609  0.23807230  0.49697556     0.08720
H714        H  0.57258892  0.36022044  0.48949617     0.06250
H715        H  0.92867791  0.36034591  0.48824340     0.06100
C716        C  0.95931290  0.29764340  0.75232611     0.03130
C717        C  0.50033856  0.27458951  0.75192581    -0.13020
C718        C  0.54099973  0.29751713  0.75307758     0.00630
C719        C  0.54048726  0.34374487  0.75234988    -0.11540
C720        C  0.49985357  0.36727964  0.75386204     0.03130
C721        C  0.95945194  0.34396880  0.75563521    -0.10960
H722        H  0.50069486  0.23881467  0.75050907     0.08720
H723        H  0.57194344  0.36131185  0.75042985     0.06250
H724        H  0.92792456  0.36189635  0.75869141     0.06100
O725        O  0.53541185  0.56170410  0.50357432    -0.71770
O726        O  0.53625127  0.43644347  0.99231377    -0.71990
O727        O  0.53594877  0.50208477  0.92550905    -0.71850
O728        O  0.53588263  0.49621650  0.57009786    -0.71860
O729        O  0.96307701  0.49672524  0.57413444    -0.71820
O730        O  0.96315551  0.50190837  0.92944042    -0.71840
O731        O  0.96358743  0.43654724  0.49655323    -0.71780
O732        O  0.96268150  0.56196532  0.00693821    -0.71970
V733        V  0.53446222  0.49910827  0.49792747     1.35240
V734        V  0.96454793  0.49925681  0.50170838     1.35170
C735        C  0.99893769  0.58326251  0.50709659     0.77460
C736        C  0.00010018  0.41504731  0.49260296     0.77520
C737        C  0.49958147  0.50275812  0.90286897     0.77390
C738        C  0.49947706  0.49596763  0.59670435     0.77350
O739        O  0.96328228  0.56278491  0.74980044    -0.71770
O740        O  0.96327978  0.43760278  0.75350475    -0.71990
O741        O  0.96323126  0.50310476  0.82427185    -0.71850
O742        O  0.96312916  0.49712156  0.67932194    -0.71860
O743        O  0.53593698  0.49630531  0.67518098    -0.71820
O744        O  0.53603092  0.50273434  0.82017975    -0.71840
O745        O  0.53600467  0.43709534  0.74971109    -0.71780
O746        O  0.53600309  0.56206100  0.74546055    -0.71970
V747        V  0.96464284  0.50016437  0.75168081     1.35240
V748        V  0.53456784  0.49958051  0.74773206     1.35170
C749        C  0.49968893  0.58378330  0.74638246     0.77460
C750        C  0.49967965  0.41598448  0.75245757     0.77520
C751        C  0.49962584  0.50326949  0.84687765     0.77390
C752        C  0.49951293  0.49609436  0.65263292     0.77350
C753        C  0.59106282  0.76419502  0.72033929    -0.09150
C754        C  0.58521555  0.72542917  0.74787506     0.07040
C755        C  0.62052170  0.71127948  0.77771462    -0.02920
C756        C  0.65997018  0.73572308  0.77958519    -0.07370
C757        C  0.66581112  0.77449488  0.75206070     0.06160
C758        C  0.63051438  0.78863405  0.72220432    -0.02390
Br759      Br  0.63401572  0.83975113  0.68096771    -0.02090
H760        H  0.56490299  0.77539031  0.69650121     0.10070
H761        H  0.68613169  0.72452789  0.80342108     0.08090
Br762      Br  0.61705009  0.66013915  0.81891625    -0.02520
C763        C  0.86298056  0.78012088  0.78940914    -0.09150
C764        C  0.83406762  0.77250572  0.74950332     0.07040
C765        C  0.84696252  0.74216900  0.70967614    -0.02920
C766        C  0.88804402  0.71990711  0.71057201    -0.07370
C767        C  0.91695470  0.72751906  0.75047998     0.06160
C768        C  0.90406253  0.75785853  0.79030471    -0.02390
Br769      Br  0.93998109  0.76832280  0.84811061    -0.02090
H770        H  0.85321072  0.80309523  0.82044285     0.10070
H771        H  0.89781201  0.69692916  0.67954112     0.08090
Br772      Br  0.81104277  0.73169643  0.65187286    -0.02520
C773        C  0.66408065  0.73247609  0.97546762    -0.09150
C774        C  0.66558619  0.77529045  0.49738572     0.07040
C775        C  0.62570703  0.79288553  0.52184304    -0.02920
C776        C  0.58672307  0.76757253  0.52456099    -0.07370
C777        C  0.58521316  0.72476423  0.50264493     0.06160
C778        C  0.62509419  0.70716708  0.97817478    -0.02390
Br779      Br  0.63018129  0.64952088  0.94610124    -0.02090
H780        H  0.69355787  0.71842136  0.95534371     0.10070
H781        H  0.55724678  0.78162671  0.54468715     0.08090
Br782      Br  0.62060122  0.85055132  0.55386671    -0.02520
C783        C  0.86452603  0.78349871  0.53626484    -0.09150
C784        C  0.83393878  0.77263487  0.49904040     0.07040
C785        C  0.84525425  0.73887083  0.96238565    -0.02920
C786        C  0.88627485  0.71647834  0.96386174    -0.07370
C787        C  0.91685749  0.72733940  0.50109125     0.06160
C788        C  0.90554597  0.76110575  0.53774317    -0.02390
Br789      Br  0.94352524  0.77624679  0.59249550    -0.02090
H790        H  0.85614357  0.80914465  0.56482685     0.10070
H791        H  0.89465824  0.69083470  0.93529727     0.08090
Br792      Br  0.80727701  0.72373267  0.90763049    -0.02520
C793        C  0.90831536  0.23819590  0.78301722    -0.09150
C794        C  0.91632576  0.27336868  0.75022358     0.07040
C795        C  0.88297290  0.28483635  0.71650505    -0.02920
C796        C  0.84257876  0.26176596  0.71695372    -0.07370
C797        C  0.83456576  0.22659658  0.74975246     0.06160
C798        C  0.86792098  0.21512673  0.78346812    -0.02390
Br799      Br  0.85929250  0.17043291  0.83345622    -0.02090
H800        H  0.93345905  0.22909375  0.80907255     0.10070
H801        H  0.81743658  0.27086619  0.69089557     0.08090
Br802      Br  0.89160660  0.32953152  0.66652046    -0.02520
C803        C  0.59371608  0.24094618  0.71390690    -0.09150
C804        C  0.58421843  0.27320540  0.75243065     0.07040
C805        C  0.61644632  0.28216057  0.78888769    -0.02920
C806        C  0.65717236  0.25903790  0.78610138    -0.07370
C807        C  0.66666908  0.22677847  0.74757833     0.06160
C808        C  0.63444012  0.21782017  0.71112409    -0.02390
Br809      Br  0.64481485  0.17609036  0.65514008    -0.02090
H810        H  0.56958487  0.23423804  0.68522878     0.10070
H811        H  0.68130396  0.26574517  0.81477936     0.08090
Br812      Br  0.60606543  0.32387441  0.84488596    -0.02520
C813        C  0.88332816  0.28779553  0.52949369    -0.09150
C814        C  0.91695016  0.27209903  0.49426032     0.07040
C815        C  0.90845922  0.23382818  0.96445568    -0.02920
C816        C  0.86748883  0.21225612  0.97051953    -0.07370
C817        C  0.83395798  0.22792487  0.50576527     0.06160
C818        C  0.84235794  0.26622324  0.53556071    -0.02390
Br819      Br  0.80088712  0.28977638  0.58724232    -0.02090
H820        H  0.88920953  0.31682511  0.55311643     0.10070
H821        H  0.86160511  0.18323164  0.94688890     0.08090
Br822      Br  0.94992833  0.21028967  0.91276499    -0.02520
C823        C  0.61160671  0.28356399  0.53486847    -0.09150
C824        C  0.58452142  0.27233646  0.49439490     0.07040
C825        C  0.59866893  0.23837705  0.95928495    -0.02920
C826        C  0.63921073  0.21641169  0.96524266    -0.07370
C827        C  0.66638557  0.22766195  0.50568349     0.06160
C828        C  0.65214992  0.26160058  0.54082394    -0.02390
Br829      Br  0.68493077  0.27801592  0.59923349    -0.02090
H830        H  0.60077156  0.30916717  0.56251895     0.10070
H831        H  0.65004677  0.19080965  0.93759119     0.08090
Br832      Br  0.56589653  0.22197211  0.90086536    -0.02520
loop_ 
_geom_bond_atom_site_label_1 
_geom_bond_atom_site_label_2 
_geom_bond_distance 
_geom_bond_site_symmetry_2 
_ccdc_geom_bond_type 
O1          V217   1.902   1_565  S
O1          C219   1.265       .  A
O2            V9   1.902   1_554  S
O2          C220   1.266       .  A
O3            V9   1.902   1_564  S
O3           C13   1.264       .  A
O4          V217   1.902       .  S
O4           C14   1.264       .  A
O5          V218   1.900       .  S
O5           C14   1.264       .  A
O6           V10   1.902   1_565  S
O6           C13   1.264       .  A
O7          V218   1.901       .  S
O7           C12   1.265       .  A
O8           V10   1.899   1_566  S
O8           C11   1.265       .  A
V9          O209   1.902   1_545  S
V9          O212   1.902       .  S
V9           V10   2.087   1_556  T
V10         O213   1.900   1_554  S
V10         O215   1.900       .  S
C11         O209   1.265       .  A
C11          C49   1.481       .  S
C12         O210   1.266       .  A
C12         C239   1.482       .  S
C13          C28   1.469       .  S
C14          C27   1.467       .  S
O15          V23   1.896       .  S
O15          C25   1.264       .  A
O16          V23   1.897   1_565  S
O16          C26   1.264       .  A
O17          V23   1.901       .  S
O17          C27   1.264       .  A
O18          V23   1.902   1_565  S
O18          C28   1.264       .  A
O19          V24   1.902       .  S
O19          C28   1.264       .  A
O20          V24   1.900   1_545  S
O20          C27   1.264       .  A
O21          V24   1.900       .  S
O21          C26   1.265       .  A
O22          V24   1.899   1_545  S
O22          C25   1.265       .  A
V23          V24   2.088   1_545  T
C25          C40   1.478       .  S
C26          C58   1.479       .  S
C29         C203   1.479       .  S
C29          C30   1.403       .  A
C29          C34   1.401       .  A
C30          C31   1.404       .  A
C30          H35   1.084       .  S
C31         C220   1.482       .  S
C31          C32   1.405       .  A
C32          C33   1.408       .  A
C32          H36   1.083       .  S
C33         C193   1.487       .  S
C33          C34   1.404       .  A
C34          H37   1.083       .  S
C38         C173   1.488       .  S
C38          C39   1.404       .  A
C38          C43   1.407       .  A
C39          C40   1.403       .  A
C39          H44   1.083       .  S
C40          C41   1.402       .  A
C41          C42   1.402       .  A
C41          H45   1.083       .  S
C42         C183   1.482       .  S
C42          C43   1.405       .  A
C43          H46   1.084       .  S
C47         C160   1.484       .  S
C47          C48   1.402       .  A
C47          C52   1.405   1_556  A
C48          C49   1.403       .  A
C48          H53   1.084       .  S
C49          C50   1.405       .  A
C50          C51   1.407       .  A
C50          H54   1.080       .  S
C51         C150   1.501       .  S
C51          C52   1.411   1_556  A
C52          H55   1.083       .  S
C56         C140   1.479       .  S
C56          C57   1.401       .  A
C56          C61   1.404       .  A
C57          C58   1.402       .  A
C57          H62   1.084       .  S
C58          C59   1.404       .  A
C59          C60   1.405       .  A
C59          H63   1.082       .  S
C60         C133   1.494       .  S
C60          C61   1.408       .  A
C61          H64   1.083       .  S
C65         C163   1.484       .  S
C65          C70   1.402       .  A
C65         C482   1.405   1_554  A
C66          C67   1.411   1_556  A
C66         C481   1.405   1_456  A
C66          H71   1.083       .  S
C67         C153   1.501       .  S
C67          C68   1.407       .  A
C68          C69   1.405   1_455  A
C68          H72   1.080       .  S
C69         C527   1.481       .  S
C69         C486   1.403       .  A
C70         C485   1.403       .  A
C70          H73   1.084       .  S
C74         C143   1.479       .  S
C74          C79   1.401       .  A
C74         C491   1.404       .  A
C75          C76   1.408       .  A
C75         C490   1.404   1_455  A
C75          H80   1.083       .  S
C76         C130   1.494       .  S
C76          C77   1.405       .  A
C77          C78   1.404   1_455  A
C77          H81   1.082       .  S
C78         C125   1.479       .  S
C78         C495   1.402       .  A
C79         C494   1.402       .  A
C79          H82   1.084       .  S
C83         C190   1.487       .  S
C83          C84   1.404       .  A
C83          C88   1.408       .  A
C84         C501   1.401       .  A
C84          H89   1.083       .  S
C85         C200   1.479       .  S
C85          C86   1.403       .  A
C85         C500   1.401       .  A
C86         C503   1.404       .  A
C86          H90   1.084       .  S
C87         C112   1.482       .  S
C87          C88   1.405       .  A
C87         C502   1.404       .  A
C88          H91   1.083       .  S
C92         C170   1.488       .  S
C92          C97   1.404       .  A
C92         C509   1.407       .  A
C93          C94   1.405       .  A
C93         C508   1.407   1_455  A
C93          H98   1.084       .  S
C94         C180   1.482       .  S
C94          C95   1.402       .  A
C95          C96   1.403   1_455  A
C95          H99   1.083       .  S
C96         C126   1.478       .  S
C96         C513   1.403       .  A
C97         C512   1.403       .  A
C97         H100   1.083       .  S
O101        V109   1.899   1_554  S
O101        C527   1.265   1_455  A
O102        V317   1.901       .  S
O102        C736   1.265       .  A
O103        V317   1.902       .  S
O103        C113   1.264   1_455  A
O104        V109   1.900   1_554  S
O104        C114   1.264   1_455  A
O105        V110   1.902       .  S
O105        C530   1.264       .  A
O106        V318   1.902       .  S
O106        C529   1.264       .  A
O107        V110   1.902   1_556  S
O107        C112   1.265       .  A
O108        V318   1.902       .  S
O108        C319   1.265       .  A
V109        O310   1.901       .  S
V109        O311   1.902       .  S
V109        V526   2.087   1_456  T
V110        O314   1.902   1_554  S
V110        O316   1.902       .  S
V110        V525   2.087   1_554  T
C111        O517   1.265       .  A
C111        O316   1.265       .  A
C111        C485   1.481       .  S
C112        O726   1.265       .  A
C113        O522   1.264       .  A
C113        C127   1.469       .  S
C114        O521   1.264       .  A
C114        C128   1.467       .  S
O115        V123   1.900       .  S
O115        C541   1.265       .  A
O116        V123   1.899       .  S
O116        C542   1.265       .  A
O117        V123   1.902       .  S
O117        C543   1.264       .  A
O118        V123   1.900       .  S
O118        C544   1.264       .  A
O119        V124   1.901       .  S
O119        C128   1.264   1_455  A
O120        V124   1.902       .  S
O120        C127   1.264   1_455  A
O121        V124   1.896       .  S
O121        C126   1.264   1_455  A
O122        V124   1.897       .  S
O122        C125   1.264   1_455  A
V123        V540   2.088       .  T
V124        V539   2.088   1_455  T
C125        O531   1.265       .  A
C126        O532   1.265       .  A
C127        O533   1.264       .  A
C128        O534   1.264       .  A
C129        C130   1.404       .  A
C129        C134   1.399       .  A
C129        H136   1.083       .  S
C130        C131   1.416       .  A
C131        C132   1.399       .  A
C131       Br138   1.915       .  S
C132        C133   1.404       .  A
C132        H137   1.083       .  S
C133        C134   1.416       .  A
C134       Br135   1.915       .  S
C139        C140   1.405       .  A
C139        C144   1.399       .  A
C139        H146   1.084       .  S
C140        C141   1.409       .  A
C141        C142   1.398       .  A
C141       Br148   1.921       .  S
C142        C143   1.405       .  A
C142        H147   1.084       .  S
C143        C144   1.409       .  A
C144       Br145   1.921       .  S
C149        C154   1.400       .  A
C149        C358   1.406       .  A
C149        H156   1.083       .  S
C150        C151   1.419   1_556  A
C150        C357   1.406       .  A
C151        C152   1.400       .  A
C151       Br158   1.919       .  S
C152        C153   1.406       .  A
C152        H157   1.083       .  S
C153        C362   1.419   1_554  A
C154        C361   1.419       .  A
C154       Br155   1.919       .  S
C159        C160   1.404   1_554  A
C159        C164   1.400       .  A
C159        H166   1.083       .  S
C160        C369   1.412       .  A
C161        C162   1.400       .  A
C161        C368   1.412       .  A
C161       Br168   1.922       .  S
C162        C371   1.404       .  A
C162        H167   1.083       .  S
C163        C164   1.412       .  A
C163        C370   1.404   1_554  A
C164       Br165   1.922       .  S
C169        C170   1.403       .  A
C169        C174   1.399       .  A
C169        H176   1.080       .  S
C170        C171   1.413       .  A
C171        C172   1.399       .  A
C171       Br178   1.921       .  S
C172        C173   1.403       .  A
C172        H177   1.080       .  S
C173        C174   1.413       .  A
C174       Br175   1.921       .  S
C179        C180   1.403       .  A
C179        C184   1.398       .  A
C179        H186   1.084       .  S
C180        C181   1.413       .  A
C181        C182   1.398       .  A
C181       Br188   1.923       .  S
C182        C183   1.403       .  A
C182        H187   1.084       .  S
C183        C184   1.413       .  A
C184       Br185   1.923       .  S
C189        C190   1.403   1_554  A
C189        C194   1.397       .  A
C189        H196   1.082       .  S
C190        C399   1.412       .  A
C191        C192   1.397       .  A
C191        C398   1.412       .  A
C191       Br198   1.911       .  S
C192        C401   1.403       .  A
C192        H197   1.082       .  S
C193        C194   1.412       .  A
C193        C400   1.403   1_554  A
C194       Br195   1.911       .  S
C199        C200   1.402   1_554  A
C199        C204   1.396       .  A
C199        H206   1.084       .  S
C200        C409   1.411       .  A
C201        C202   1.396       .  A
C201        C408   1.411       .  A
C201       Br208   1.915       .  S
C202        C411   1.402       .  A
C202        H207   1.084       .  S
C203        C204   1.411       .  A
C203        C410   1.402   1_554  A
C204       Br205   1.915       .  S
O210        V217   1.902       .  S
O211        V217   1.902   1_565  S
O211        C221   1.264       .  A
O212        C222   1.264       .  A
O213        C222   1.264       .  A
O214        V218   1.902   1_565  S
O214        C221   1.264       .  A
O215        C220   1.265       .  A
O216        V218   1.899   1_565  S
O216        C219   1.265       .  A
V217        V218   2.087       .  T
C219        C257   1.481       .  S
C221        C236   1.469       .  S
C222        C235   1.467       .  S
O223        V231   1.896       .  S
O223        C233   1.264       .  A
O224        V231   1.897   1_565  S
O224        C234   1.264       .  A
O225        V231   1.901       .  S
O225        C235   1.264       .  A
O226        V231   1.902   1_565  S
O226        C236   1.264       .  A
O227        V232   1.902       .  S
O227        C236   1.264       .  A
O228        V232   1.900   1_545  S
O228        C235   1.264       .  A
O229        V232   1.900       .  S
O229        C234   1.265       .  A
O230        V232   1.899   1_545  S
O230        C233   1.265       .  A
V231        V232   2.088   1_545  T
C233        C248   1.478       .  S
C234        C266   1.479       .  S
C237        C411   1.479       .  S
C237        C238   1.403       .  A
C237        C242   1.401       .  A
C238        C239   1.404       .  A
C238        H243   1.084       .  S
C239        C240   1.405       .  A
C240        C241   1.408       .  A
C240        H244   1.083       .  S
C241        C401   1.487       .  S
C241        C242   1.404       .  A
C242        H245   1.083       .  S
C246        C381   1.488       .  S
C246        C247   1.404       .  A
C246        C251   1.407       .  A
C247        C248   1.403       .  A
C247        H252   1.083       .  S
C248        C249   1.402       .  A
C249        C250   1.402       .  A
C249        H253   1.083       .  S
C250        C391   1.482       .  S
C250        C251   1.405       .  A
C251        H254   1.084       .  S
C255        C368   1.484       .  S
C255        C256   1.402       .  A
C255        C260   1.405       .  A
C256        C257   1.403       .  A
C256        H261   1.084       .  S
C257        C258   1.405       .  A
C258        C259   1.407       .  A
C258        H262   1.080       .  S
C259        C358   1.501       .  S
C259        C260   1.411       .  A
C260        H263   1.083       .  S
C264        C348   1.479       .  S
C264        C265   1.401       .  A
C264        C269   1.404       .  A
C265        C266   1.402       .  A
C265        H270   1.084       .  S
C266        C267   1.404       .  A
C267        C268   1.405       .  A
C267        H271   1.082       .  S
C268        C341   1.494       .  S
C268        C269   1.408       .  A
C269        H272   1.083       .  S
C273        C371   1.484       .  S
C273        C690   1.405       .  A
C273        C278   1.402       .  A
C274        C689   1.405   1_455  A
C274        C275   1.411       .  A
C274        H279   1.083       .  S
C275        C361   1.501       .  S
C275        C276   1.407       .  A
C276        C277   1.405   1_455  A
C276        H280   1.080       .  S
C277        C735   1.481       .  S
C277        C694   1.403       .  A
C278        C693   1.403       .  A
C278        H281   1.084       .  S
C282        C351   1.479       .  S
C282        C699   1.404       .  A
C282        C287   1.401       .  A
C283        C698   1.404   1_455  A
C283        C284   1.408       .  A
C283        H288   1.083       .  S
C284        C338   1.494       .  S
C284        C285   1.405       .  A
C285        C286   1.404   1_455  A
C285        H289   1.082       .  S
C286        C333   1.479       .  S
C286        C703   1.402       .  A
C287        C702   1.402       .  A
C287        H290   1.084       .  S
C291        C398   1.487       .  S
C291        C292   1.404       .  A
C291        C296   1.408       .  A
C292        C709   1.401       .  A
C292        H297   1.083       .  S
C293        C408   1.479       .  S
C293        C708   1.401       .  A
C293        C294   1.403       .  A
C294        C711   1.404       .  A
C294        H298   1.084       .  S
C295        C320   1.482       .  S
C295        C710   1.404       .  A
C295        C296   1.405       .  A
C296        H299   1.083       .  S
C300        C378   1.488       .  S
C300        C717   1.407       .  A
C300        C305   1.404       .  A
C301        C716   1.407   1_455  A
C301        C302   1.405       .  A
C301        H306   1.084       .  S
C302        C388   1.482       .  S
C302        C303   1.402       .  A
C303        C304   1.402   1_455  A
C303        H307   1.083       .  S
C304        C334   1.478       .  S
C304        C721   1.403       .  A
C305        C720   1.403       .  A
C305        H308   1.083       .  S
O309        V317   1.899       .  S
O309        C735   1.265   1_455  A
O310        C528   1.265       .  A
O311        C321   1.264   1_455  A
O312        V317   1.900       .  S
O312        C322   1.264   1_455  A
O313        V318   1.902       .  S
O313        C738   1.264       .  A
O314        C737   1.264       .  A
O315        V318   1.902       .  S
O315        C320   1.266       .  A
V317        V734   2.087   1_455  T
V318        V733   2.087       .  T
C319        O725   1.265       .  A
C319        C693   1.481       .  S
C320        O518   1.265       .  A
C321        O730   1.264       .  A
C321        C335   1.469       .  S
C322        O729   1.264       .  A
C322        C336   1.467       .  S
O323        V331   1.900       .  S
O323        C749   1.265       .  A
O324        V331   1.899       .  S
O324        C750   1.265       .  A
O325        V331   1.902       .  S
O325        C751   1.264       .  A
O326        V331   1.900       .  S
O326        C752   1.264       .  A
O327        V332   1.901       .  S
O327        C336   1.264   1_455  A
O328        V332   1.902       .  S
O328        C335   1.264   1_455  A
O329        V332   1.896       .  S
O329        C334   1.264   1_455  A
O330        V332   1.897       .  S
O330        C333   1.264   1_455  A
V331        V748   2.088       .  T
V332        V747   2.088   1_455  T
C333        O739   1.265       .  A
C334        O740   1.265       .  A
C335        O741   1.264       .  A
C336        O742   1.264       .  A
C337        C338   1.404       .  A
C337        C342   1.399       .  A
C337        H344   1.083       .  S
C338        C339   1.416       .  A
C339        C340   1.399       .  A
C339       Br346   1.915       .  S
C340        C341   1.404       .  A
C340        H345   1.083       .  S
C341        C342   1.416       .  A
C342       Br343   1.915       .  S
C347        C348   1.405       .  A
C347        C352   1.399       .  A
C347        H354   1.084       .  S
C348        C349   1.409       .  A
C349        C350   1.398       .  A
C349       Br356   1.921       .  S
C350        C351   1.405       .  A
C350        H355   1.084       .  S
C351        C352   1.409       .  A
C352       Br353   1.921       .  S
C357        C362   1.400       .  A
C357        H364   1.083       .  S
C358        C359   1.419       .  A
C359        C360   1.400       .  A
C359       Br366   1.919       .  S
C360        C361   1.406       .  A
C360        H365   1.083       .  S
C362       Br363   1.919       .  S
C367        C368   1.404       .  A
C367        C372   1.400       .  A
C367        H374   1.083       .  S
C369        C370   1.400       .  A
C369       Br376   1.922       .  S
C370        H375   1.083       .  S
C371        C372   1.412       .  A
C372       Br373   1.922       .  S
C377        C378   1.403       .  A
C377        C382   1.399       .  A
C377        H384   1.080       .  S
C378        C379   1.413       .  A
C379        C380   1.399       .  A
C379       Br386   1.921       .  S
C380        C381   1.403       .  A
C380        H385   1.080       .  S
C381        C382   1.413       .  A
C382       Br383   1.921       .  S
C387        C388   1.403       .  A
C387        C392   1.398       .  A
C387        H394   1.084       .  S
C388        C389   1.413       .  A
C389        C390   1.398       .  A
C389       Br396   1.923       .  S
C390        C391   1.403       .  A
C390        H395   1.084       .  S
C391        C392   1.413       .  A
C392       Br393   1.923       .  S
C397        C398   1.403       .  A
C397        C402   1.397       .  A
C397        H404   1.082       .  S
C399        C400   1.397       .  A
C399       Br406   1.911       .  S
C400        H405   1.082       .  S
C401        C402   1.412       .  A
C402       Br403   1.911       .  S
C407        C408   1.402       .  A
C407        C412   1.396       .  A
C407        H414   1.084       .  S
C409        C410   1.396       .  A
C409       Br416   1.915       .  S
C410        H415   1.084       .  S
C411        C412   1.411       .  A
C412       Br413   1.915       .  S
O417        V633   1.902   1_565  S
O417        C635   1.265       .  A
O418        V425   1.902   1_554  S
O418        C636   1.266       .  A
O419        V425   1.902   1_564  S
O419        C429   1.264       .  A
O420        V633   1.902       .  S
O420        C430   1.264       .  A
O421        V634   1.900       .  S
O421        C430   1.264       .  A
O422        V426   1.902   1_565  S
O422        C429   1.264       .  A
O423        V634   1.901       .  S
O423        C428   1.265       .  A
O424        V426   1.899   1_566  S
O424        C427   1.265       .  A
V425        O625   1.902   1_545  S
V425        O628   1.902       .  S
V425        V426   2.087   1_556  T
V426        O629   1.900   1_554  S
V426        O631   1.900       .  S
C427        O625   1.265       .  A
C427        C465   1.481       .  S
C428        O626   1.266       .  A
C428        C655   1.482       .  S
C429        C444   1.469       .  S
C430        C443   1.467       .  S
O431        V439   1.896       .  S
O431        C441   1.264       .  A
O432        V439   1.897   1_565  S
O432        C442   1.264       .  A
O433        V439   1.901       .  S
O433        C443   1.264       .  A
O434        V439   1.902   1_565  S
O434        C444   1.264       .  A
O435        V440   1.902       .  S
O435        C444   1.264       .  A
O436        V440   1.900   1_545  S
O436        C443   1.264       .  A
O437        V440   1.900       .  S
O437        C442   1.265       .  A
O438        V440   1.899   1_545  S
O438        C441   1.265       .  A
V439        V440   2.088   1_545  T
C441        C456   1.478       .  S
C442        C474   1.479       .  S
C445        C619   1.479       .  S
C445        C446   1.403       .  A
C445        C450   1.401       .  A
C446        C447   1.404       .  A
C446        H451   1.084       .  S
C447        C636   1.482       .  S
C447        C448   1.405       .  A
C448        C449   1.408       .  A
C448        H452   1.083       .  S
C449        C609   1.487       .  S
C449        C450   1.404       .  A
C450        H453   1.083       .  S
C454        C589   1.488       .  S
C454        C455   1.404       .  A
C454        C459   1.407       .  A
C455        C456   1.403       .  A
C455        H460   1.083       .  S
C456        C457   1.402       .  A
C457        C458   1.402       .  A
C457        H461   1.083       .  S
C458        C599   1.482       .  S
C458        C459   1.405       .  A
C459        H462   1.084       .  S
C463        C576   1.484       .  S
C463        C464   1.402       .  A
C463        C468   1.405   1_556  A
C464        C465   1.403       .  A
C464        H469   1.084       .  S
C465        C466   1.405       .  A
C466        C467   1.407       .  A
C466        H470   1.080       .  S
C467        C566   1.501       .  S
C467        C468   1.411   1_556  A
C468        H471   1.083       .  S
C472        C556   1.479       .  S
C472        C473   1.401       .  A
C472        C477   1.404       .  A
C473        C474   1.402       .  A
C473        H478   1.084       .  S
C474        C475   1.404       .  A
C475        C476   1.405       .  A
C475        H479   1.082       .  S
C476        C549   1.494       .  S
C476        C477   1.408       .  A
C477        H480   1.083       .  S
C481        C579   1.484       .  S
C481        C486   1.402       .  A
C482        C483   1.411   1_556  A
C482        H487   1.083       .  S
C483        C569   1.501       .  S
C483        C484   1.407       .  A
C484        C485   1.405       .  A
C484        H488   1.080       .  S
C486        H489   1.084       .  S
C490        C559   1.479       .  S
C490        C495   1.401       .  A
C491        C492   1.408       .  A
C491        H496   1.083       .  S
C492        C546   1.494       .  S
C492        C493   1.405       .  A
C493        C494   1.404       .  A
C493        H497   1.082       .  S
C494        C541   1.479       .  S
C495        H498   1.084       .  S
C499        C606   1.487       .  S
C499        C500   1.404   1_655  A
C499        C504   1.408       .  A
C500        H505   1.083       .  S
C501        C616   1.479       .  S
C501        C502   1.403       .  A
C502        H506   1.084       .  S
C503        C528   1.482       .  S
C503        C504   1.405   1_455  A
C504        H507   1.083       .  S
C508        C586   1.488       .  S
C508        C513   1.404       .  A
C509        C510   1.405       .  A
C509        H514   1.084       .  S
C510        C596   1.482       .  S
C510        C511   1.402       .  A
C511        C512   1.403       .  A
C511        H515   1.083       .  S
C512        C542   1.478       .  S
C513        H516   1.083       .  S
O517        V525   1.899   1_554  S
O518        V733   1.901       .  S
O519        V733   1.902       .  S
O519        C529   1.264       .  A
O520        V525   1.900   1_554  S
O520        C530   1.264       .  A
O521        V526   1.902       .  S
O522        V734   1.902       .  S
O523        V526   1.902   1_556  S
O523        C528   1.265   1_655  A
O524        V734   1.902       .  S
O524        C735   1.265       .  A
V525        O726   1.901       .  S
V525        O727   1.902       .  S
V526        O730   1.902   1_554  S
V526        O732   1.902       .  S
C527        O732   1.265       .  A
C529        C543   1.469       .  S
C530        C544   1.467       .  S
O531        V539   1.900       .  S
O532        V539   1.899       .  S
O533        V539   1.902       .  S
O534        V539   1.900       .  S
O535        V540   1.901       .  S
O535        C544   1.264       .  A
O536        V540   1.902       .  S
O536        C543   1.264       .  A
O537        V540   1.896       .  S
O537        C542   1.264       .  A
O538        V540   1.897       .  S
O538        C541   1.264       .  A
C545        C546   1.404       .  A
C545        C550   1.399       .  A
C545        H552   1.083       .  S
C546        C547   1.416       .  A
C547        C548   1.399       .  A
C547       Br554   1.915       .  S
C548        C549   1.404       .  A
C548        H553   1.083       .  S
C549        C550   1.416       .  A
C550       Br551   1.915       .  S
C555        C556   1.405       .  A
C555        C560   1.399       .  A
C555        H562   1.084       .  S
C556        C557   1.409       .  A
C557        C558   1.398       .  A
C557       Br564   1.921       .  S
C558        C559   1.405       .  A
C558        H563   1.084       .  S
C559        C560   1.409       .  A
C560       Br561   1.921       .  S
C565        C774   1.406       .  A
C565        C570   1.400       .  A
C565        H572   1.083       .  S
C566        C773   1.406       .  A
C566        C567   1.419   1_556  A
C567        C568   1.400       .  A
C567       Br574   1.919       .  S
C568        C569   1.406       .  A
C568        H573   1.083       .  S
C569        C778   1.419   1_554  A
C570        C777   1.419       .  A
C570       Br571   1.919       .  S
C575        C576   1.404   1_554  A
C575        C580   1.400       .  A
C575        H582   1.083       .  S
C576        C785   1.412       .  A
C577        C784   1.412       .  A
C577        C578   1.400       .  A
C577       Br584   1.922       .  S
C578        C787   1.404       .  A
C578        H583   1.083       .  S
C579        C786   1.404   1_554  A
C579        C580   1.412       .  A
C580       Br581   1.922       .  S
C585        C586   1.403       .  A
C585        C590   1.399       .  A
C585        H592   1.080       .  S
C586        C587   1.413       .  A
C587        C588   1.399       .  A
C587       Br594   1.921       .  S
C588        C589   1.403       .  A
C588        H593   1.080       .  S
C589        C590   1.413       .  A
C590       Br591   1.921       .  S
C595        C596   1.403       .  A
C595        C600   1.398       .  A
C595        H602   1.084       .  S
C596        C597   1.413       .  A
C597        C598   1.398       .  A
C597       Br604   1.923       .  S
C598        C599   1.403       .  A
C598        H603   1.084       .  S
C599        C600   1.413       .  A
C600       Br601   1.923       .  S
C605        C606   1.403   1_554  A
C605        C610   1.397       .  A
C605        H612   1.082       .  S
C606        C815   1.412       .  A
C607        C814   1.412       .  A
C607        C608   1.397       .  A
C607       Br614   1.911       .  S
C608        C817   1.403       .  A
C608        H613   1.082       .  S
C609        C816   1.403   1_554  A
C609        C610   1.412       .  A
C610       Br611   1.911       .  S
C615        C616   1.402   1_554  A
C615        C620   1.396       .  A
C615        H622   1.084       .  S
C616        C825   1.411       .  A
C617        C824   1.411       .  A
C617        C618   1.396       .  A
C617       Br624   1.915       .  S
C618        C827   1.402       .  A
C618        H623   1.084       .  S
C619        C826   1.402   1_554  A
C619        C620   1.411       .  A
C620       Br621   1.915       .  S
O626        V633   1.902       .  S
O627        V633   1.902   1_565  S
O627        C637   1.264       .  A
O628        C638   1.264       .  A
O629        C638   1.264       .  A
O630        V634   1.902   1_565  S
O630        C637   1.264       .  A
O631        C636   1.265       .  A
O632        V634   1.899   1_565  S
O632        C635   1.265       .  A
V633        V634   2.087       .  T
C635        C673   1.481       .  S
C637        C652   1.469       .  S
C638        C651   1.467       .  S
O639        V647   1.896       .  S
O639        C649   1.264       .  A
O640        V647   1.897   1_565  S
O640        C650   1.264       .  A
O641        V647   1.901       .  S
O641        C651   1.264       .  A
O642        V647   1.902   1_565  S
O642        C652   1.264       .  A
O643        V648   1.902       .  S
O643        C652   1.264       .  A
O644        V648   1.900   1_545  S
O644        C651   1.264       .  A
O645        V648   1.900       .  S
O645        C650   1.265       .  A
O646        V648   1.899   1_545  S
O646        C649   1.265       .  A
V647        V648   2.088   1_545  T
C649        C664   1.478       .  S
C650        C682   1.479       .  S
C653        C827   1.479       .  S
C653        C654   1.403       .  A
C653        C658   1.401       .  A
C654        C655   1.404       .  A
C654        H659   1.084       .  S
C655        C656   1.405       .  A
C656        C657   1.408       .  A
C656        H660   1.083       .  S
C657        C817   1.487       .  S
C657        C658   1.404       .  A
C658        H661   1.083       .  S
C662        C797   1.488       .  S
C662        C663   1.404       .  A
C662        C667   1.407       .  A
C663        C664   1.403       .  A
C663        H668   1.083       .  S
C664        C665   1.402       .  A
C665        C666   1.402       .  A
C665        H669   1.083       .  S
C666        C807   1.482       .  S
C666        C667   1.405       .  A
C667        H670   1.084       .  S
C671        C784   1.484       .  S
C671        C672   1.402       .  A
C671        C676   1.405       .  A
C672        C673   1.403       .  A
C672        H677   1.084       .  S
C673        C674   1.405       .  A
C674        C675   1.407       .  A
C674        H678   1.080       .  S
C675        C774   1.501       .  S
C675        C676   1.411       .  A
C676        H679   1.083       .  S
C680        C764   1.479       .  S
C680        C681   1.401       .  A
C680        C685   1.404       .  A
C681        C682   1.402       .  A
C681        H686   1.084       .  S
C682        C683   1.404       .  A
C683        C684   1.405       .  A
C683        H687   1.082       .  S
C684        C757   1.494       .  S
C684        C685   1.408       .  A
C685        H688   1.083       .  S
C689        C787   1.484       .  S
C689        C694   1.402       .  A
C690        C691   1.411       .  A
C690        H695   1.083       .  S
C691        C777   1.501       .  S
C691        C692   1.407       .  A
C692        C693   1.405       .  A
C692        H696   1.080       .  S
C694        H697   1.084       .  S
C698        C767   1.479       .  S
C698        C703   1.401       .  A
C699        C700   1.408       .  A
C699        H704   1.083       .  S
C700        C754   1.494       .  S
C700        C701   1.405       .  A
C701        C702   1.404       .  A
C701        H705   1.082       .  S
C702        C749   1.479       .  S
C703        H706   1.084       .  S
C707        C814   1.487       .  S
C707        C708   1.404   1_655  A
C707        C712   1.408       .  A
C708        H713   1.083       .  S
C709        C824   1.479       .  S
C709        C710   1.403       .  A
C710        H714   1.084       .  S
C711        C736   1.482       .  S
C711        C712   1.405   1_455  A
C712        H715   1.083       .  S
C716        C794   1.488       .  S
C716        C721   1.404       .  A
C717        C718   1.405       .  A
C717        H722   1.084       .  S
C718        C804   1.482       .  S
C718        C719   1.402       .  A
C719        C720   1.402       .  A
C719        H723   1.083       .  S
C720        C750   1.478       .  S
C721        H724   1.083       .  S
O725        V733   1.899       .  S
O727        C737   1.264       .  A
O728        V733   1.900       .  S
O728        C738   1.264       .  A
O729        V734   1.902       .  S
O731        V734   1.902       .  S
O731        C736   1.266   1_655  A
C737        C751   1.469       .  S
C738        C752   1.467       .  S
O739        V747   1.900       .  S
O740        V747   1.899       .  S
O741        V747   1.902       .  S
O742        V747   1.900       .  S
O743        V748   1.901       .  S
O743        C752   1.264       .  A
O744        V748   1.902       .  S
O744        C751   1.264       .  A
O745        V748   1.896       .  S
O745        C750   1.264       .  A
O746        V748   1.897       .  S
O746        C749   1.264       .  A
C753        C754   1.404       .  A
C753        C758   1.399       .  A
C753        H760   1.083       .  S
C754        C755   1.416       .  A
C755        C756   1.399       .  A
C755       Br762   1.915       .  S
C756        C757   1.404       .  A
C756        H761   1.083       .  S
C757        C758   1.416       .  A
C758       Br759   1.915       .  S
C763        C764   1.405       .  A
C763        C768   1.399       .  A
C763        H770   1.084       .  S
C764        C765   1.409       .  A
C765        C766   1.398       .  A
C765       Br772   1.921       .  S
C766        C767   1.405       .  A
C766        H771   1.084       .  S
C767        C768   1.409       .  A
C768       Br769   1.921       .  S
C773        C778   1.400       .  A
C773        H780   1.083       .  S
C774        C775   1.419       .  A
C775        C776   1.400       .  A
C775       Br782   1.919       .  S
C776        C777   1.406       .  A
C776        H781   1.083       .  S
C778       Br779   1.919       .  S
C783        C784   1.404       .  A
C783        C788   1.400       .  A
C783        H790   1.083       .  S
C785        C786   1.400       .  A
C785       Br792   1.922       .  S
C786        H791   1.083       .  S
C787        C788   1.412       .  A
C788       Br789   1.922       .  S
C793        C794   1.403       .  A
C793        C798   1.399       .  A
C793        H800   1.080       .  S
C794        C795   1.413       .  A
C795        C796   1.399       .  A
C795       Br802   1.921       .  S
C796        C797   1.403       .  A
C796        H801   1.080       .  S
C797        C798   1.413       .  A
C798       Br799   1.921       .  S
C803        C804   1.403       .  A
C803        C808   1.398       .  A
C803        H810   1.084       .  S
C804        C805   1.413       .  A
C805        C806   1.398       .  A
C805       Br812   1.923       .  S
C806        C807   1.403       .  A
C806        H811   1.084       .  S
C807        C808   1.413       .  A
C808       Br809   1.923       .  S
C813        C814   1.403       .  A
C813        C818   1.397       .  A
C813        H820   1.082       .  S
C815        C816   1.397       .  A
C815       Br822   1.911       .  S
C816        H821   1.082       .  S
C817        C818   1.412       .  A
C818       Br819   1.911       .  S
C823        C824   1.402       .  A
C823        C828   1.396       .  A
C823        H830   1.084       .  S
C825        C826   1.396       .  A
C825       Br832   1.915       .  S
C826        H831   1.084       .  S
C827        C828   1.411       .  A
C828       Br829   1.915       .  S
