geometry optimzed in LAMMPS
_audit_creation_date              2020-11-30 
_audit_creation_method            'lammps2cif' 
_symmetry_space_group_name_H-M    'P1' 
_symmetry_Int_Tables_number       1 
_symmetry_cell_setting            triclinic 
loop_ 
_symmetry_equiv_pos_as_xyz 
  x,y,z 
_cell_length_a                    28.6821821082332 
_cell_length_b                    25.630789487189958 
_cell_length_c                    37.57230563673271 
_cell_angle_alpha                 91.28929674046542 
_cell_angle_beta                  90.78256204174431 
_cell_angle_gamma                 91.03506805269896 
loop_ 
_atom_site_label 
_atom_site_type_symbol 
_atom_site_fract_x 
_atom_site_fract_y 
_atom_site_fract_z 
_atom_site_charge 
O1          O  0.91073286  0.44100393  0.86810711    -0.74090
O2          O  0.92788037  0.37876482  0.82671816    -0.53000
C3          C  0.90460113  0.39599058  0.85352413     0.79640
O4          O  0.91065377  0.60213563  0.70903390    -0.58690
O5          O  0.94563431  0.66522280  0.74448487    -0.51720
C6          C  0.92089092  0.65017089  0.71736073     0.71650
O7          O  0.90705610  0.42559383  0.71383912    -0.73250
O8          O  0.94486925  0.36843617  0.74938891    -0.53810
C9          C  0.91870355  0.37914588  0.72262573     0.77660
O10         O  0.93961050  0.60962348  0.86354049    -0.58390
O11         O  0.93443192  0.66911658  0.82248792    -0.51510
C12         C  0.91844410  0.64793773  0.85041383     0.74250
Zr13       Zr  0.92050019  0.52362445  0.84017011     2.54710
O14         O  0.83863845  0.53272966  0.82383203    -0.78960
O15         O  0.87844915  0.53460787  0.89571794    -0.92380
Zr16       Zr  0.92234370  0.51584870  0.73474843     2.64680
O17         O  0.83791421  0.51649778  0.74040092    -0.97330
O18         O  0.91472486  0.51004713  0.67017849    -0.79390
O19         O  0.91940604  0.46871383  0.78850505    -0.82750
O20         O  0.92049519  0.57055224  0.78637234    -2.17460
O21         O  0.04125907  0.61168761  0.86453813    -0.66140
O22         O  0.04792990  0.67160601  0.82402869    -0.50700
C23         C  0.06372479  0.65000351  0.85193772     0.72630
O24         O  0.07639115  0.42603512  0.71923097    -0.59050
O25         O  0.03702860  0.36795074  0.75361828    -0.51020
C26         C  0.06475913  0.37923206  0.72823925     0.74430
O27         O  0.06657433  0.60186405  0.70890911    -0.70440
O28         O  0.03616863  0.66584101  0.74413692    -0.49120
C29         C  0.05677904  0.64991856  0.71596653     0.75820
O30         O  0.06741866  0.44165795  0.87082659    -0.65770
O31         O  0.04834323  0.37938973  0.82893499    -0.52970
C32         C  0.07222146  0.39678835  0.85609892     0.74200
Zr33       Zr  0.05868336  0.52484634  0.84358505     2.77540
O34         O  0.14318196  0.53263413  0.83693606    -0.96520
O35         O  0.08822761  0.53214621  0.90456294    -0.77340
Zr36       Zr  0.06109752  0.51696052  0.73804502     2.70070
O37         O  0.14474046  0.52666271  0.74862988    -0.78590
O38         O  0.07833081  0.50393075  0.67516145    -0.97670
Zr39       Zr  0.98942931  0.42035057  0.79210430     2.21500
Zr40       Zr  0.99153455  0.62154343  0.78786756     2.11130
O41         O  0.06206418  0.57209695  0.78965854    -2.46360
O42         O  0.06046060  0.47012579  0.79189877    -0.78380
O43         O  0.99005249  0.57473914  0.84222692    -0.70580
O44         O  0.99128072  0.46688747  0.73759133    -2.31530
O45         O  0.98907598  0.47298445  0.84496036    -2.27740
O46         O  0.99218299  0.56637358  0.73574372    -0.72340
H47         H  0.89370266  0.59257807  0.78486849     0.79660
H48         H  0.99184119  0.44379520  0.71698745     0.80750
H49         H  0.08891408  0.59518732  0.78904910     0.82970
H50         H  0.98887742  0.45285381  0.86630794     0.80580
H51         H  0.94720455  0.50749681  0.66179247     0.43610
H52         H  0.05299531  0.52160597  0.66225329     0.42580
H53         H  0.15417847  0.49252548  0.75792318     0.42260
H54         H  0.14896531  0.56000042  0.81935092     0.40200
H55         H  0.05989244  0.53251944  0.91932035     0.43330
H56         H  0.89986886  0.52198457  0.91439710     0.38110
H57         H  0.82610183  0.49646864  0.82266508     0.44230
H58         H  0.82984558  0.55388347  0.74005755     0.40640
H59         H  0.15515382  0.54807986  0.85971866     0.45560
H60         H  0.85250669  0.50857490  0.89453970     0.44290
H61         H  0.82592687  0.50198419  0.71733525     0.44420
H62         H  0.10663162  0.52554436  0.67107399     0.44780
C63         C  0.72246712  0.34105039  0.89736477     0.04330
C64         C  0.70531167  0.29150901  0.88795748    -0.11820
C65         C  0.65801259  0.28014038  0.88867597     0.01830
C66         C  0.62713643  0.31785429  0.90146367    -0.10340
C67         C  0.64393851  0.36762167  0.91375700     0.04320
C68         C  0.69222881  0.37900486  0.91131836    -0.09770
H69         H  0.72874949  0.26262136  0.87705166     0.09920
H70         H  0.59018851  0.30835750  0.90142353     0.07450
H71         H  0.70581421  0.41757948  0.91849317     0.07290
O72         O  0.57546855  0.06717191  0.82866823    -0.74090
O73         O  0.62683740  0.07136557  0.78532179    -0.53000
C74         C  0.61155869  0.08792127  0.81529980     0.79640
O75         O  0.42072412  0.89520558  0.81373110    -0.58690
O76         O  0.36268793  0.94396988  0.79035955    -0.51720
C77         C  0.37793380  0.90524431  0.80817986     0.71650
O78         O  0.57120098  0.90329196  0.81871895    -0.73250
O79         O  0.62741915  0.94401008  0.78656603    -0.53810
C80         C  0.61338769  0.91085813  0.80974733     0.77660
O81         O  0.42661941  0.09769967  0.83244658    -0.58390
O82         O  0.36795012  0.06999756  0.79492673    -0.51510
C83         C  0.38400153  0.09653237  0.82219618     0.74250
Zr84       Zr  0.49941701  0.08413127  0.80394849     2.54710
O85         O  0.50839427  0.12482462  0.86291627    -0.78960
O86         O  0.50643678  0.17805280  0.79497076    -0.92380
Zr87       Zr  0.49573474  0.93031116  0.80152408     2.64680
O88         O  0.49429130  0.93718614  0.86629441    -0.97330
O89         O  0.49887784  0.83561385  0.80409904    -0.79390
O90         O  0.54288400  0.00642062  0.80424715    -0.82750
O91         O  0.45214245  0.00714057  0.80694968    -2.17460
O92         O  0.40949243  0.09958270  0.67804243    -0.66140
O93         O  0.35957234  0.05821478  0.71547433    -0.50700
C94         C  0.36802759  0.08570184  0.68815043     0.72630
O95         O  0.56958199  0.91198533  0.67147279    -0.59050
O96         O  0.62380550  0.95390824  0.70758050    -0.51020
C97         C  0.61219302  0.92410890  0.68103850     0.74430
O98         O  0.40727354  0.91013719  0.67643227    -0.70440
O99         O  0.35930983  0.95301756  0.71496684    -0.49120
C100        C  0.36645713  0.92276027  0.68803627     0.75820
O101        O  0.57137526  0.10147283  0.67504223    -0.65770
O102        O  0.62438473  0.05680588  0.70812560    -0.52970
C103        C  0.61341609  0.08814881  0.68343491     0.74200
Zr104      Zr  0.49174519  0.08391873  0.69781444     2.77540
O105        O  0.49017945  0.08650026  0.63304915    -0.96520
O106        O  0.49201883  0.17876788  0.70274702    -0.77340
Zr107      Zr  0.48993294  0.92855789  0.69539327     2.70070
O108        O  0.48516322  0.92296482  0.63070351    -0.78590
O109        O  0.48940255  0.83407836  0.70064285    -0.97670
Zr110      Zr  0.58338485  0.00549147  0.74984318     2.21500
Zr111      Zr  0.40556133  0.00725161  0.75459096     2.11130
O112        O  0.44638630  0.00615154  0.69913058    -2.46360
O113        O  0.53585364  0.00626963  0.69691731    -0.78380
O114        O  0.45042344  0.08625020  0.75255747    -0.70580
O115        O  0.53765360  0.92710866  0.74769807    -2.31530
O116        O  0.54080910  0.08515829  0.74971868    -2.27740
O117        O  0.44806280  0.92860604  0.74981652    -0.72340
H118        H  0.43362287  0.00511016  0.82816014     0.79660
H119        H  0.55717705  0.89679882  0.74679135     0.80750
H120        H  0.42522386  0.00565213  0.67896282     0.82970
H121        H  0.56205267  0.11471772  0.74908242     0.80580
H122        H  0.50760293  0.82417483  0.77978278     0.43610
H123        H  0.46151888  0.82621310  0.71496367     0.42580
H124        H  0.49113781  0.95917003  0.62307127     0.42260
H125        H  0.46615196  0.06017054  0.62548024     0.40200
H126        H  0.46125212  0.18714236  0.71282496     0.43330
H127        H  0.52082179  0.18283947  0.77149752     0.38110
H128        H  0.50682492  0.09539968  0.87951650     0.44230
H129        H  0.46098989  0.94066858  0.87234364     0.40640
H130        H  0.47625198  0.12049727  0.62752167     0.45560
H131        H  0.53035052  0.19090312  0.81241116     0.44290
H132        H  0.50245358  0.90192793  0.87432429     0.44420
H133        H  0.48117667  0.82063457  0.67641256     0.44780
C134        C  0.25502873  0.67203225  0.89677933     0.04330
C135        C  0.27056092  0.72206090  0.88865882    -0.11820
C136        C  0.31767873  0.73368431  0.88681083     0.01830
C137        C  0.35030186  0.69674899  0.89752506    -0.10340
C138        C  0.33542634  0.64752280  0.91006665     0.04320
C139        C  0.28708784  0.63494167  0.90883469    -0.09770
H140        H  0.24575498  0.75025321  0.87910653     0.09920
H141        H  0.38709517  0.70645897  0.89572177     0.07450
H142        H  0.27478856  0.59624338  0.91555010     0.07290
C143        C  0.73013974  0.67280049  0.89558152     0.04330
C144        C  0.69724398  0.63744934  0.90954036    -0.11820
C145        C  0.64969888  0.65121691  0.91170444     0.01830
C146        C  0.63635445  0.70051273  0.89868446    -0.10340
C147        C  0.66995601  0.73567167  0.88560943     0.04320
C148        C  0.71642752  0.72225267  0.88570491    -0.09770
H149        H  0.70820366  0.59894946  0.91702933     0.09920
H150        H  0.60002751  0.71132710  0.89810164     0.07450
H151        H  0.74187660  0.74900928  0.87459410     0.07290
C152        C  0.25340817  0.34030430  0.89966448     0.04330
C153        C  0.26797868  0.29040182  0.89060545    -0.11820
C154        C  0.31493025  0.27870475  0.89046937     0.01830
C155        C  0.34794251  0.31663097  0.90247109    -0.10340
C156        C  0.33374691  0.36708975  0.91368320     0.04320
C157        C  0.28586797  0.37862026  0.91200538    -0.09770
H158        H  0.24255162  0.26134962  0.88094322     0.09920
H159        H  0.38455077  0.30699280  0.90233269     0.07450
H160        H  0.27415702  0.41757583  0.91855791     0.07290
C161        C  0.18927351  0.14258885  0.63095077     0.04330
C162        C  0.17281115  0.18624025  0.64967313    -0.11820
C163        C  0.12603989  0.20045472  0.64686241     0.01830
C164        C  0.09488778  0.17048223  0.62534118    -0.10340
C165        C  0.11053067  0.12650015  0.60643474     0.04320
C166        C  0.15790043  0.11300787  0.60900740    -0.09770
H167        H  0.19623539  0.20872309  0.66723758     0.09920
H168        H  0.05884123  0.18201530  0.62275621     0.07450
H169        H  0.17030496  0.07964589  0.59389533     0.07290
C170        C  0.18408411  0.87825272  0.62571339     0.04330
C171        C  0.15668321  0.91313972  0.60602433    -0.11820
C172        C  0.10899370  0.90101970  0.59874310     0.01830
C173        C  0.08965741  0.85409378  0.61067179    -0.10340
C174        C  0.11707717  0.81878024  0.62913053     0.04320
C175        C  0.16408047  0.83069868  0.63578635    -0.09770
H176        H  0.17184978  0.94952175  0.59714687     0.09920
H177        H  0.05338080  0.84436137  0.60473685     0.07450
H178        H  0.18479938  0.80394956  0.65107648     0.07290
C179        C  0.79091508  0.14649619  0.62519994     0.04330
C180        C  0.81070806  0.19406262  0.63731656    -0.11820
C181        C  0.85841535  0.20376866  0.63509671     0.01830
C182        C  0.88679443  0.16795250  0.61771366    -0.10340
C183        C  0.86711238  0.12247477  0.60194801     0.04320
C184        C  0.81894038  0.11135431  0.60591814    -0.09770
H185        H  0.78946344  0.22212829  0.65143222     0.09920
H186        H  0.92382360  0.17632860  0.61549094     0.07450
H187        H  0.80394630  0.07526635  0.59496886     0.07290
C188        C  0.79099737  0.87243064  0.62181072     0.04330
C189        C  0.81062842  0.82563624  0.63271545    -0.11820
C190        C  0.85834257  0.81738968  0.63028542     0.01830
C191        C  0.88696803  0.85395882  0.61371446    -0.10340
C192        C  0.86766444  0.89879303  0.59919742     0.04320
C193        C  0.81944507  0.90835462  0.60351108    -0.09770
H194        H  0.78924330  0.79699487  0.64610912     0.09920
H195        H  0.92397264  0.84687567  0.61138939     0.07450
H196        H  0.80468370  0.94381024  0.59344404     0.07290
O197        O  0.56650678  0.39954001  0.04377365    -0.74090
O198        O  0.62370049  0.45012673  0.01965147    -0.53000
C199        C  0.60949498  0.41063321  0.03775521     0.79640
O200        O  0.41196180  0.39770965  0.91835595    -0.58690
O201        O  0.35631897  0.44649899  0.94543392    -0.51720
C202        C  0.36930821  0.40684392  0.92634264     0.71650
O203        O  0.56682022  0.39698859  0.92077718    -0.73250
O204        O  0.62540967  0.44760844  0.94552797    -0.53810
C205        C  0.61024144  0.40699861  0.92750334     0.77660
O206        O  0.41329114  0.40509857  0.04743163    -0.58390
O207        O  0.35755718  0.45319624  0.02011468    -0.51510
C208        C  0.37049199  0.41564992  0.04019422     0.74250
Zr209      Zr  0.49130586  0.43969541  0.03499928     2.54710
O210        O  0.48794791  0.34725328  0.04841923    -0.78960
O211        O  0.49567524  0.46115330  0.09840911    -0.92380
Zr212      Zr  0.49019352  0.43473888  0.92897202     2.64680
O213        O  0.49250836  0.34076931  0.91761837    -0.97330
O214        O  0.48983797  0.44823953  0.86506350    -0.79390
O215        O  0.53541497  0.43685697  0.98214364    -0.82750
O216        O  0.44626608  0.43576437  0.98191608    -2.17460
O217        O  0.41775324  0.62492667  0.04820718    -0.66140
O218        O  0.36064365  0.57470949  0.02081520    -0.50700
C219        C  0.37474760  0.61302984  0.04146903     0.72630
O220        O  0.57051194  0.62437139  0.91909422    -0.59050
O221        O  0.62698819  0.57523511  0.94457961    -0.51020
C222        C  0.61361197  0.61428094  0.92596296     0.74430
O223        O  0.41386909  0.62010040  0.91616823    -0.70440
O224        O  0.35719784  0.57277610  0.94370708    -0.49120
C225        C  0.37082259  0.61046350  0.92382044     0.75820
O226        O  0.57210499  0.62834653  0.04466763    -0.65770
O227        O  0.62779343  0.57682125  0.02010304    -0.52970
C228        C  0.61483317  0.61691868  0.03881440     0.74200
Zr229      Zr  0.49436452  0.59189380  0.03357097     2.77540
O230        O  0.49711562  0.68699225  0.03756039    -0.96520
O231        O  0.49785914  0.58376922  0.09797644    -0.77340
Zr232      Zr  0.49228963  0.58679907  0.92790729     2.70070
O233        O  0.49184677  0.68000833  0.91688343    -0.78590
O234        O  0.49348036  0.56872114  0.86407698    -0.97670
Zr235      Zr  0.58433326  0.51307830  0.98169027     2.21500
Zr236      Zr  0.40020189  0.51261640  0.98135951     2.11130
O237        O  0.44835130  0.58991580  0.98084915    -2.46360
O238        O  0.53826404  0.58959592  0.98078094    -0.78380
O239        O  0.44565492  0.51589226  0.03534099    -0.70580
O240        O  0.53870087  0.51076825  0.92753041    -2.31530
O241        O  0.54021219  0.51566880  0.03551509    -2.27740
O242        O  0.44375209  0.51052135  0.92723482    -0.72340
H243        H  0.42725017  0.40438700  0.98243273     0.79660
H244        H  0.55855339  0.50982832  0.90696236     0.80750
H245        H  0.42977437  0.62092982  0.98105101     0.82970
H246        H  0.56059012  0.51665187  0.05622073     0.80580
H247        H  0.52126509  0.43777717  0.85736960     0.43610
H248        H  0.46020593  0.56452773  0.85704081     0.42580
H249        H  0.48988838  0.69657148  0.94087214     0.42260
H250        H  0.47263204  0.69851996  0.02080387     0.40200
H251        H  0.46591630  0.57272461  0.10454496     0.43330
H252        H  0.52715228  0.45017297  0.10595188     0.38110
H253        H  0.48452018  0.32937938  0.02485995     0.44230
H254        H  0.47158703  0.32516099  0.93539980     0.40640
H255        H  0.48529203  0.69601899  0.06151939     0.45560
H256        H  0.47415043  0.43571732  0.10937145     0.44290
H257        H  0.47632467  0.33467677  0.89440903     0.44420
H258        H  0.50341492  0.60224130  0.85370752     0.44780
C259        C  0.26496488  0.65233707  0.08931355     0.04330
C260        C  0.29632683  0.62355660  0.06874583    -0.11820
C261        C  0.33949802  0.64573115  0.05945635     0.01830
C262        C  0.35021126  0.69796878  0.07030768    -0.10340
C263        C  0.31820121  0.72695136  0.09039246     0.04320
C264        C  0.27591765  0.70388650  0.09948466    -0.09770
H265        H  0.28815477  0.58313293  0.06175543     0.09920
H266        H  0.38369219  0.71550857  0.06409711     0.07450
H267        H  0.25240014  0.72551385  0.11644050     0.07290
C268        C  0.72188719  0.36534077  0.07985824     0.04330
C269        C  0.68990896  0.39525466  0.06105994    -0.11820
C270        C  0.64471133  0.37579253  0.05369930     0.01830
C271        C  0.63233490  0.32514121  0.06537045    -0.10340
C272        C  0.66534832  0.29442309  0.08307752     0.04320
C273        C  0.71018173  0.31448648  0.08934640    -0.09770
H274        H  0.69910369  0.43525259  0.05497770     0.09920
H275        H  0.59695029  0.31026582  0.06179307     0.07450
H276        H  0.73443003  0.29256995  0.10533838     0.07290
C277        C  0.72432896  0.66610015  0.08800192     0.04330
C278        C  0.71207534  0.71722570  0.09717634    -0.11820
C279        C  0.66891420  0.73667120  0.08679187     0.01830
C280        C  0.63884734  0.70457951  0.06533722    -0.10340
C281        C  0.65059035  0.65273977  0.05587072     0.04320
C282        C  0.69392635  0.63405073  0.06713514    -0.09770
H283        H  0.73433968  0.73995323  0.11546699     0.09920
H284        H  0.60516482  0.71927672  0.05742944     0.07450
H285        H  0.70257971  0.59359467  0.06207075     0.07290
O286        O  0.40750733  0.93873974  0.13345702    -0.74090
O287        O  0.35689565  0.95134987  0.17786957    -0.53000
C288        C  0.36977970  0.92752586  0.14919063     0.79640
O289        O  0.56281923  0.93529797  0.29469928    -0.58690
O290        O  0.61618862  0.97084337  0.25727420    -0.51720
C291        C  0.60521398  0.94722870  0.28570994     0.71650
O292        O  0.40000975  0.93437987  0.29052862    -0.73250
O293        O  0.35063118  0.97446609  0.25215308    -0.53810
C294        C  0.35874600  0.94903291  0.28041508     0.77660
O295        O  0.55867079  0.93642334  0.13666937    -0.58390
O296        O  0.61329441  0.95086902  0.17964343    -0.51510
C297        C  0.59714937  0.92546317  0.15200462     0.74250
Zr298      Zr  0.48248688  0.94249248  0.16267737     2.54710
O299        O  0.46720986  0.85233379  0.17908263    -0.78960
O300        O  0.48828701  0.89520403  0.10592184    -0.92380
Zr301      Zr  0.48239592  0.94454826  0.26914781     2.64680
O302        O  0.48103087  0.84963022  0.26552288    -0.97330
O303        O  0.48000795  0.93763869  0.33361047    -0.79390
O304        O  0.43763986  0.94253487  0.21503851    -0.82750
O305        O  0.52762772  0.94072260  0.21615687    -2.17460
O306        O  0.56417350  0.10805125  0.13879722    -0.66140
O307        O  0.61737011  0.08492365  0.18049777    -0.50700
C308        C  0.60434756  0.11184026  0.15360919     0.72630
O309        O  0.40601289  0.11549007  0.29164277    -0.59050
O310        O  0.35457886  0.07502306  0.25258891    -0.51020
C311        C  0.36409021  0.10260893  0.28065787     0.74430
O312        O  0.56851283  0.11483985  0.29335077    -0.70440
O313        O  0.61836701  0.07204848  0.25631122    -0.49120
C314        C  0.60983826  0.10194005  0.28315180     0.75820
O315        O  0.41375904  0.12759303  0.14662668    -0.65770
O316        O  0.35503698  0.08442664  0.17458315    -0.52970
C317        C  0.37086909  0.11980037  0.15374809     0.74200
Zr318      Zr  0.48871355  0.09794750  0.16441425     2.77540
O319        O  0.49622469  0.19235516  0.17298115    -0.96900
O320        O  0.48401308  0.11404499  0.10091869    -0.77340
Zr321      Zr  0.48720630  0.09962748  0.27047494     2.70070
O322        O  0.48887118  0.19443422  0.26785713    -0.78590
O323        O  0.48557792  0.10178701  0.33531321    -0.97670
Zr324      Zr  0.39696335  0.02251092  0.21188151     2.21500
Zr325      Zr  0.57407772  0.01923295  0.21464027     2.11130
O326        O  0.53303365  0.09930173  0.21787376    -2.46360
O327        O  0.44291737  0.10076479  0.21625992    -0.78380
O328        O  0.53026319  0.01899808  0.16090982    -0.70580
O329        O  0.44071965  0.02293315  0.26695919    -2.31530
O330        O  0.44105294  0.02219346  0.15913094    -2.27740
O331        O  0.52980347  0.02119804  0.26837257    -0.72340
H332        H  0.54705258  0.91034139  0.21654481     0.79660
H333        H  0.42113111  0.02400456  0.28754215     0.80750
H334        H  0.55448547  0.12877296  0.21881026     0.82970
H335        H  0.42197643  0.02604575  0.13801059     0.80580
H336        H  0.47492339  0.97378669  0.34237441     0.43610
H337        H  0.50803897  0.07503800  0.34264911     0.42580
H338        H  0.45806473  0.20323175  0.25764931     0.42260
H339        H  0.51210753  0.19831007  0.19627704     0.40200
H340        H  0.47845553  0.07908959  0.08976083     0.43330
H341        H  0.47710344  0.91975503  0.08784805     0.38110
H342        H  0.48982928  0.84500221  0.19831516     0.44230
H343        H  0.51335024  0.83973527  0.27155993     0.40640
H344        H  0.51925726  0.20350843  0.15517966     0.45560
H345        H  0.46393003  0.86735300  0.10636342     0.44290
H346        H  0.46251080  0.83889069  0.28625569     0.44420
H347        H  0.50067867  0.13552026  0.34247565     0.44780
O348        O  0.07427775  0.59781324  0.17041942    -0.74090
O349        O  0.12732613  0.55346829  0.20324271    -0.53000
C350        C  0.11596636  0.58267666  0.17724058     0.79640
O351        O  0.92053682  0.59223553  0.32151772    -0.58690
O352        O  0.86535228  0.58197824  0.27876020    -0.51720
C353        C  0.88374835  0.60727154  0.30541982     0.71650
O354        O  0.07384110  0.58580386  0.32511329    -0.73250
O355        O  0.12332947  0.57803004  0.28001015    -0.53810
C356        C  0.10921432  0.60190447  0.30830213     0.77660
O357        O  0.91668804  0.60259717  0.16857489    -0.58390
O358        O  0.86160760  0.56396095  0.20257041    -0.51510
C359        C  0.87396887  0.59188791  0.17631643     0.74250
Zr360      Zr  0.99496943  0.58414714  0.19151093     2.54710
O361        O  0.99817484  0.67914137  0.19142013    -0.78960
O362        O  0.99297995  0.58121698  0.12664018    -0.92380
Zr363      Zr  0.99844101  0.58845178  0.29704739     2.64680
O364        O  0.02738075  0.67368388  0.27805552    -0.97330
O365        O  0.99258116  0.64067928  0.35170925    -0.79390
O366        O  0.04181220  0.58625354  0.24414850    -0.82750
O367        O  0.95126753  0.59032505  0.24439283    -2.17460
O368        O  0.91307309  0.42392651  0.16509011    -0.66140
O369        O  0.85935644  0.46294778  0.20026211    -0.50700
C370        C  0.87105630  0.43670388  0.17235831     0.72630
O371        O  0.06459981  0.40596838  0.31468707    -0.59050
O372        O  0.12360578  0.44450483  0.28387240    -0.51020
C373        C  0.10743479  0.41170343  0.30633553     0.74430
O374        O  0.91416012  0.45584707  0.32176031    -0.70440
O375        O  0.85816385  0.45323918  0.28101128    -0.49120
C376        C  0.87746058  0.43412851  0.30858767     0.75820
O377        O  0.06798956  0.41366692  0.16851237    -0.65770
O378        O  0.12373547  0.45336980  0.20416648    -0.52970
C379        C  0.11071827  0.42597263  0.17664128     0.74200
Zr380      Zr  0.99015182  0.42907544  0.19288112     2.77540
O381        O  0.98415657  0.33675984  0.20625951    -0.96520
O382        O  0.99033524  0.40090257  0.13058546    -0.77340
Zr383      Zr  0.98844740  0.43331622  0.29715505     2.70070
O384        O  0.96489633  0.34213338  0.28810810    -0.78590
O385        O  0.99401970  0.40469904  0.35841734    -0.97670
Zr386      Zr  0.08302219  0.50641808  0.24664111     2.21500
Zr387      Zr  0.90285919  0.51293972  0.24486033     2.11130
O388        O  0.94285907  0.43117248  0.24412423    -2.46360
O389        O  0.03563553  0.42881138  0.24583099    -0.78380
O390        O  0.94795091  0.50785577  0.19210325    -0.70580
O391        O  0.03864720  0.50738267  0.29998595    -2.31530
O392        O  0.03664560  0.50569922  0.19303549    -2.27740
O393        O  0.94881524  0.51357108  0.29838261    -0.72340
H394        H  0.93291949  0.62147243  0.24360962     0.79660
H395        H  0.05744447  0.50190786  0.32103810     0.80750
H396        H  0.92110898  0.40198437  0.24333271     0.82970
H397        H  0.05507479  0.50487991  0.17181124     0.80580
H398        H  0.00020171  0.61634834  0.37095260     0.43610
H399        H  0.97757114  0.43145699  0.37261695     0.42580
H400        H  0.99450824  0.32289190  0.28875449     0.42260
H401        H  0.95314552  0.32556036  0.19667834     0.40200
H402        H  0.99239313  0.43376362  0.11727348     0.43330
H403        H  0.01545247  0.55403661  0.11975211     0.38110
H404        H  0.03186428  0.68828204  0.19142486     0.44230
H405        H  0.00725266  0.68503793  0.25827240     0.40640
H406        H  0.00663888  0.31987193  0.19010851     0.45560
H407        H  0.00785308  0.61449074  0.11954620     0.44290
H408        H  0.02270341  0.69884191  0.29800426     0.44420
H409        H  0.97381807  0.37305044  0.35924377     0.44780
C410        C  0.25742023  0.36942462  0.08200090     0.04330
C411        C  0.29042123  0.40136835  0.06526006    -0.11820
C412        C  0.33405282  0.38126345  0.05580314     0.01830
C413        C  0.34411945  0.32902262  0.06435527    -0.10340
C414        C  0.31021942  0.29698647  0.08022613     0.04320
C415        C  0.26645582  0.31686068  0.08717520    -0.09770
H416        H  0.28361919  0.44250893  0.06229240     0.09920
H417        H  0.37865946  0.31389232  0.06001559     0.07450
H418        H  0.24164515  0.29333925  0.10174877     0.07290
C419        C  0.19466851  0.13877890  0.35573042     0.04330
C420        C  0.19019035  0.19243864  0.35339959    -0.11820
C421        C  0.14751980  0.21581971  0.35821201     0.01830
C422        C  0.10915027  0.18605357  0.36974342    -0.10340
C423        C  0.11329170  0.13184443  0.37464633     0.04320
C424        C  0.15623637  0.10794827  0.36650084    -0.09770
H425        H  0.21937697  0.21579311  0.34407803     0.09920
H426        H  0.07654000  0.20505196  0.37540571     0.07450
H427        H  0.16007416  0.06630507  0.36943657     0.07290
C428        C  0.78881377  0.15107545  0.34865751     0.04330
C429        C  0.80128808  0.20307071  0.34341373    -0.11820
C430        C  0.84633090  0.22188445  0.35046032     0.01830
C431        C  0.87940268  0.18887062  0.36561877    -0.10340
C432        C  0.86749721  0.13646776  0.37270628     0.04320
C433        C  0.82178289  0.11753731  0.36397340    -0.09770
H434        H  0.77581716  0.22898279  0.33203965     0.09920
H435        H  0.91387003  0.20417551  0.37261547     0.07450
H436        H  0.81194390  0.07750327  0.36934044     0.07290
C437        C  0.18532014  0.89511797  0.34638403     0.04330
C438        C  0.17644337  0.84308192  0.33662360    -0.11820
C439        C  0.13335415  0.81934073  0.34261956     0.01830
C440        C  0.09764290  0.84843384  0.35851247    -0.10340
C441        C  0.10496193  0.90173687  0.36754684     0.04320
C442        C  0.14920817  0.92484238  0.36139368    -0.09770
H443        H  0.20375451  0.82034793  0.32443434     0.09920
H444        H  0.06497467  0.82923640  0.36500326     0.07450
H445        H  0.15623002  0.96490859  0.36991782     0.07290
C446        C  0.78023700  0.88873685  0.34780578     0.04330
C447        C  0.79147750  0.83812329  0.33652257    -0.11820
C448        C  0.83573554  0.81829646  0.34292354     0.01830
C449        C  0.87053985  0.85091449  0.35876539    -0.10340
C450        C  0.86129867  0.90272726  0.36845038     0.04320
C451        C  0.81550745  0.92094767  0.36399563    -0.09770
H452        H  0.76579799  0.81406159  0.32212619     0.09920
H453        H  0.90429852  0.83514595  0.36540676     0.07450
H454        H  0.80705010  0.95934244  0.37438736     0.07290
O455        O  0.09041849  0.92461567  0.54092437    -0.74090
O456        O  0.04538075  0.95728613  0.58568590    -0.53000
C457        C  0.08042950  0.93115857  0.57386636     0.79640
O458        O  0.08656612  0.11589394  0.43101361    -0.58690
O459        O  0.04654279  0.07424997  0.38517821    -0.51720
C460        C  0.07939200  0.10530449  0.39791621     0.71650
O461        O  0.08953847  0.10958601  0.54718731    -0.73250
O462        O  0.04508470  0.07122106  0.58979206    -0.53810
C463        C  0.07962372  0.10023952  0.57965303     0.77660
O464        O  0.08043701  0.91602690  0.42532847    -0.58390
O465        O  0.04175779  0.96000903  0.38191895    -0.51510
C466        C  0.07300049  0.92765131  0.39277990     0.74250
Zr467      Zr  0.05265770  0.93841752  0.48395021     2.54710
O468        O  0.13602634  0.92345019  0.48034413    -0.78960
O469        O  0.03529958  0.84518480  0.48602788    -0.92380
Zr470      Zr  0.05699582  0.09216911  0.48820139     2.64680
O471        O  0.14199925  0.09532983  0.49004064    -0.97330
O472        O  0.04943415  0.18665299  0.49101236    -0.79390
O473        O  0.05607524  0.01443239  0.52060604    -0.82750
O474        O  0.05497381  0.01610033  0.45123829    -2.17460
O475        O  0.88655284  0.91936605  0.42593990    -0.66140
O476        O  0.92702222  0.96091546  0.38240595    -0.50700
C477        C  0.89401685  0.93008362  0.39344323     0.72630
O478        O  0.88214923  0.09468993  0.54403470    -0.59050
O479        O  0.93368779  0.07173384  0.58754962    -0.51020
C480        C  0.89568391  0.09297768  0.57663464     0.74430
O481        O  0.89046297  0.11556949  0.43000841    -0.70440
O482        O  0.93078600  0.07729132  0.38455852    -0.49120
C483        C  0.89834206  0.10719991  0.39688603     0.75820
O484        O  0.88483965  0.92249561  0.54150751    -0.65770
O485        O  0.93207410  0.95626901  0.58618488    -0.52970
C486        C  0.89632388  0.92909781  0.57440908     0.74200
Zr487      Zr  0.91772274  0.94065531  0.48411277     2.77540
O488        O  0.83274605  0.93572235  0.48500798    -0.96520
O489        O  0.92626983  0.84630215  0.48357186    -0.77340
Zr490      Zr  0.92230367  0.09390576  0.48769768     2.70070
O491        O  0.84261089  0.12498306  0.48568098    -0.78590
O492        O  0.94396901  0.18543643  0.49739625    -0.97670
Zr493      Zr  0.98855004  0.01439933  0.55677783     2.21500
Zr494      Zr  0.98651659  0.01783011  0.41386764     2.11130
O495        O  0.91869985  0.01795632  0.45077874    -2.46360
O496        O  0.91976698  0.01650489  0.52053774    -0.78380
O497        O  0.98456410  0.93904645  0.44739966    -0.70580
O498        O  0.99008966  0.09406747  0.52439286    -2.31530
O499        O  0.98580782  0.93657801  0.52023610    -2.27740
O500        O  0.98918345  0.09527677  0.45126398    -0.72340
H501        H  0.08282860  0.01587955  0.43711103     0.79660
H502        H  0.99103523  0.12403713  0.54046513     0.80750
H503        H  0.89043763  0.01845133  0.43656286     0.82970
H504        H  0.98521910  0.90576607  0.53458732     0.80580
H505        H  0.04953499  0.19580737  0.51675582     0.43610
H506        H  0.92880322  0.20353998  0.47744790     0.42580
H507        H  0.82306416  0.09298926  0.48212225     0.42260
H508        H  0.82211892  0.96064707  0.46697979     0.40200
H509        H  0.93623574  0.83735166  0.45909000     0.43330
H510        H  0.04633314  0.83482851  0.50989049     0.38110
H511        H  0.15014654  0.95878350  0.47830553     0.44230
H512        H  0.15178156  0.07124022  0.47068135     0.40640
H513        H  0.82422161  0.90078889  0.47486856     0.45560
H514        H  0.05755492  0.82905698  0.46933879     0.44290
H515        H  0.15079679  0.13059766  0.48189802     0.44420
H516        H  0.92628044  0.19634458  0.51867216     0.44780
C517        C  0.19380304  0.40614659  0.16439568     0.24800
C518        C  0.14775327  0.41096033  0.15167560    -0.23310
C519        C  0.13877888  0.40668031  0.11465305     0.19700
C520        C  0.17512357  0.39656397  0.09107030     0.24740
C521        C  0.22073315  0.39166584  0.10414522    -0.23250
C522        C  0.22986095  0.39713079  0.14083145     0.19640
F523        F  0.27370841  0.39083281  0.15399127    -0.13210
F524        F  0.20394604  0.40896909  0.19981655    -0.15580
F525        F  0.16572888  0.39014955  0.05571799    -0.15580
F526        F  0.09512674  0.41300789  0.10121298    -0.13210
C527        C  0.12110664  0.72726324  0.36122741     0.24800
C528        C  0.12853820  0.76294470  0.33406713    -0.23310
C529        C  0.13767717  0.74412884  0.29941843     0.19700
C530        C  0.13702314  0.69051198  0.29164758     0.24740
C531        C  0.12686176  0.65471134  0.31842203    -0.23250
C532        C  0.12046871  0.67364690  0.35353857     0.19640
F533        F  0.11149658  0.64012028  0.38018567    -0.13210
F534        F  0.11479346  0.74434990  0.39526003    -0.15580
F535        F  0.14223072  0.67406824  0.25733932    -0.15580
F536        F  0.14571606  0.77796318  0.27278627    -0.13210
C537        C  0.82508543  0.67032172  0.33010682     0.24800
C538        C  0.86788178  0.66000354  0.31421494    -0.23310
C539        C  0.89827940  0.70145532  0.30679823     0.19700
C540        C  0.88748978  0.75249381  0.31555849     0.24740
C541        C  0.84573512  0.76351598  0.33275695    -0.23250
C542        C  0.81411970  0.72194802  0.33970293     0.19640
F543        F  0.77346737  0.73099768  0.35664970    -0.13210
F544        F  0.79483489  0.63068680  0.33715799    -0.15580
F545        F  0.91768615  0.79123235  0.30643012    -0.15580
F546        F  0.93860128  0.69242844  0.29018242    -0.13210
C547        C  0.85137755  0.34254959  0.29516741     0.24800
C548        C  0.86445516  0.38142478  0.32052391    -0.23310
C549        C  0.87311406  0.36708901  0.35598641     0.19700
C550        C  0.86934587  0.31473108  0.36575317     0.24740
C551        C  0.85717284  0.27600557  0.34014623    -0.23250
C552        C  0.84834900  0.29042320  0.30481057     0.19640
F553        F  0.83681221  0.25361163  0.27947594    -0.13210
F554        F  0.84376295  0.35444214  0.26055924    -0.15580
F555        F  0.87626131  0.30206211  0.40028958    -0.15580
F556        F  0.88515462  0.40388228  0.38117550    -0.13210
C557        C  0.15105329  0.27995307  0.31005001     0.24800
C558        C  0.14359810  0.26975263  0.34618930    -0.23310
C559        C  0.13711384  0.31135886  0.37029985     0.19700
C560        C  0.13386767  0.36218254  0.35778384     0.24740
C561        C  0.13692304  0.37160973  0.32108480    -0.23250
C562        C  0.14830877  0.33061989  0.29765872     0.19640
F563        F  0.14992837  0.33833087  0.26202827    -0.13210
F564        F  0.15818492  0.24014941  0.28636464    -0.15580
F565        F  0.12267347  0.40146445  0.38078256    -0.15580
F566        F  0.13246404  0.30255002  0.40557151    -0.13210
C567        C  0.32505400  0.15445377  0.10313371     0.24800
C568        C  0.34073061  0.15945076  0.13870607    -0.23310
C569        C  0.34484722  0.20946363  0.15464247     0.19700
C570        C  0.33638708  0.25377913  0.13489686     0.24740
C571        C  0.32269986  0.24908558  0.09895977    -0.23250
C572        C  0.31521179  0.19912920  0.08351383     0.19640
F573        F  0.29982171  0.19377912  0.04929050    -0.13210
F574        F  0.32238422  0.10667443  0.08683224    -0.15580
F575        F  0.34271062  0.30166788  0.15062618    -0.15580
F576        F  0.36189289  0.21550347  0.18844145    -0.13210
C577        C  0.69244370  0.87478882  0.34276569     0.24800
C578        C  0.73240136  0.90782964  0.34002262    -0.23310
C579        C  0.72713399  0.95671572  0.32475352     0.19700
C580        C  0.68469334  0.97016882  0.30955911     0.24740
C581        C  0.64581016  0.93549578  0.30912759    -0.23250
C582        C  0.64950023  0.88850117  0.32732508     0.19640
F583        F  0.61292714  0.85417530  0.32779342    -0.13210
F584        F  0.69543196  0.82818638  0.35905918    -0.15580
F585        F  0.68298283  0.01622089  0.29281553    -0.15580
F586        F  0.76415613  0.98989604  0.32125410    -0.13210
C587        C  0.65933762  0.11482368  0.33927652     0.24800
C588        C  0.65243155  0.12142947  0.30241336    -0.23310
C589        C  0.69092264  0.13569136  0.28171452     0.19700
C590        C  0.73536894  0.14076546  0.29678590     0.24740
C591        C  0.74283612  0.13383157  0.33339707    -0.23250
C592        C  0.70432036  0.12151621  0.35475353     0.19640
F593        F  0.71013794  0.11684555  0.39043933    -0.13210
F594        F  0.62318236  0.09989944  0.35988054    -0.15580
F595        F  0.77151574  0.15375337  0.27552294    -0.15580
F596        F  0.68562520  0.14321306  0.24621003    -0.13210
C597        C  0.23725108  0.11887337  0.30156613     0.24800
C598        C  0.23681402  0.11810283  0.33881648    -0.23310
C599        C  0.27958625  0.11667386  0.35763267     0.19700
C600        C  0.32202271  0.11438067  0.33918204     0.24740
C601        C  0.32221498  0.11595254  0.30169514    -0.23250
C602        C  0.27914453  0.11970998  0.28337920     0.19640
F603        F  0.27741103  0.12342479  0.24736698    -0.13210
F604        F  0.19670837  0.12325600  0.28282142    -0.15580
F605        F  0.36254987  0.10999706  0.35785432    -0.15580
F606        F  0.28023005  0.11937373  0.39375905    -0.13210
C607        C  0.23471106  0.95871796  0.31452994     0.24800
C608        C  0.23193981  0.91722473  0.33784847    -0.23310
C609        C  0.27298101  0.88989233  0.34608404     0.19700
C610        C  0.31504270  0.90106338  0.32876768     0.24740
C611        C  0.31664779  0.93943722  0.30263840    -0.23250
C612        C  0.27609600  0.96937208  0.29690189     0.19640
F613        F  0.27516700  0.00767628  0.27263908    -0.13210
F614        F  0.19604201  0.98587751  0.30600479    -0.15580
F615        F  0.35308584  0.87220771  0.33602193    -0.15580
F616        F  0.27156002  0.85027420  0.36946735    -0.13210
C617        C  0.84586971  0.63956535  0.12199159     0.24800
C618        C  0.83601243  0.61140181  0.15302000    -0.23310
C619        C  0.78886672  0.60027932  0.16101399     0.19700
C620        C  0.75313060  0.61534690  0.13828868     0.24740
C621        C  0.76317905  0.64338657  0.10775078    -0.23250
C622        C  0.80956563  0.65599294  0.09984645     0.19640
F623        F  0.81954731  0.68486244  0.07097705    -0.13210
F624        F  0.89038923  0.65199032  0.11318981    -0.15580
F625        F  0.70819438  0.60478805  0.14706619    -0.15580
F626        F  0.77669400  0.57610672  0.19138130    -0.13210
C627        C  0.60858762  0.78647494  0.11992088     0.24800
C628        C  0.65230155  0.78622962  0.10358361    -0.23310
C629        C  0.68060366  0.83208615  0.10612082     0.19700
C630        C  0.66437566  0.87759014  0.12342130     0.24740
C631        C  0.61973156  0.87775826  0.13822822    -0.23250
C632        C  0.59260752  0.83153246  0.13667498     0.19640
F633        F  0.54999635  0.82987901  0.15163895    -0.13210
F634        F  0.58149478  0.74249655  0.12064811    -0.15580
F635        F  0.69134144  0.92166155  0.12452185    -0.15580
F636        F  0.72337750  0.83323942  0.09113142    -0.13210
C637        C  0.66369162  0.19662858  0.08761523     0.24800
C638        C  0.65214831  0.24605057  0.10155522    -0.23310
C639        C  0.63371684  0.24986568  0.13590226     0.19700
C640        C  0.62490160  0.20493190  0.15532953     0.24740
C641        C  0.63306469  0.15514654  0.14041827    -0.23250
C642        C  0.65316596  0.15135456  0.10658622     0.19640
F643        F  0.66033527  0.10375660  0.09128660    -0.13210
F644        F  0.68389791  0.19223497  0.05526784    -0.15580
F645        F  0.60461228  0.20978723  0.18765831    -0.15580
F646        F  0.62364703  0.29727815  0.15042296    -0.13210
C647        C  0.80681539  0.37153537  0.09372908     0.24800
C648        C  0.76178900  0.39046916  0.09837724    -0.23310
C649        C  0.75299842  0.42587992  0.12630941     0.19700
C650        C  0.78834694  0.44075747  0.15026903     0.24740
C651        C  0.83371177  0.42119775  0.14640590    -0.23250
C652        C  0.84272619  0.38710009  0.11729543     0.19640
F653        F  0.88564693  0.36693379  0.11227929    -0.13210
F654        F  0.81542159  0.33624455  0.06723810    -0.15580
F655        F  0.77725559  0.47276478  0.17798919    -0.15580
F656        F  0.70909224  0.44289931  0.13209983    -0.13210
C657        C  0.19505172  0.57024093  0.15099778     0.24800
C658        C  0.15295532  0.59787339  0.15226443    -0.23310
C659        C  0.14593786  0.63855920  0.12822487     0.19700
C660        C  0.18112956  0.65304171  0.10504409     0.24740
C661        C  0.22408871  0.62766386  0.10563738    -0.23250
C662        C  0.23027039  0.58512877  0.12795055     0.19640
F663        F  0.27168159  0.56032814  0.12938571    -0.13210
F664        F  0.20282003  0.52934510  0.17249666    -0.15580
F665        F  0.17422125  0.69380675  0.08320927    -0.15580
F666        F  0.10585574  0.66596657  0.12799188    -0.13210
C667        C  0.32975372  0.82334554  0.08357255     0.24800
C668        C  0.32923518  0.77964261  0.10537962    -0.23310
C669        C  0.33440071  0.78690159  0.14246704     0.19700
C670        C  0.34210025  0.83686371  0.15738297     0.24740
C671        C  0.34495141  0.88042456  0.13542646    -0.23250
C672        C  0.33787449  0.87335948  0.09846749     0.19640
F673        F  0.34087254  0.91483353  0.07671284    -0.13210
F674        F  0.32263000  0.81750099  0.04791009    -0.15580
F675        F  0.35105983  0.84206250  0.19289897    -0.15580
F676        F  0.33368014  0.74516423  0.16411015    -0.13210
C677        C  0.32671283  0.16774569  0.82321641     0.24800
C678        C  0.35446979  0.13306611  0.84211494    -0.23310
C679        C  0.36551059  0.14447933  0.87826598     0.19700
C680        C  0.35291327  0.19192592  0.89407854     0.24740
C681        C  0.32828570  0.22820900  0.87429487    -0.23250
C682        C  0.31383937  0.21501456  0.83914981     0.19640
F683        F  0.28958342  0.24940616  0.81948800    -0.13210
F684        F  0.31621618  0.15855036  0.78825360    -0.15580
F685        F  0.36550922  0.20287588  0.92844181    -0.15580
F686        F  0.39158179  0.11116985  0.89748538    -0.13210
C687        C  0.33153622  0.87362747  0.85823712     0.24800
C688        C  0.34675319  0.86623449  0.82316336    -0.23310
C689        C  0.35050773  0.81522459  0.80908298     0.19700
C690        C  0.34304561  0.77234917  0.83055097     0.24740
C691        C  0.33071095  0.77969386  0.86625051    -0.23250
C692        C  0.32279900  0.83044073  0.87954425     0.19640
F693        F  0.30825748  0.83805117  0.91346450    -0.13210
F694        F  0.32915823  0.92251468  0.87269073    -0.15580
F695        F  0.34827740  0.72348083  0.81660803    -0.15580
F696        F  0.36643818  0.80721600  0.77554041    -0.13210
C697        C  0.65579620  0.78024627  0.82869189     0.24800
C698        C  0.65803320  0.78298253  0.86605585    -0.23310
C699        C  0.65722304  0.83195580  0.88344585     0.19700
C700        C  0.65024880  0.87714162  0.86383031     0.24740
C701        C  0.64476301  0.87400522  0.82652530    -0.23250
C702        C  0.64915577  0.82529692  0.80911586     0.19640
F703        F  0.64138787  0.82044317  0.77346946    -0.13210
F704        F  0.65876835  0.73347194  0.81123144    -0.15580
F705        F  0.64444289  0.92337812  0.88141901    -0.15580
F706        F  0.66194306  0.83575706  0.91940976    -0.13210
C707        C  0.68995310  0.13171699  0.68766048     0.24800
C708        C  0.65409318  0.11102444  0.66557299    -0.23310
C709        C  0.66274628  0.10214605  0.62915846     0.19700
C710        C  0.70726314  0.11328047  0.61534436     0.24740
C711        C  0.74347795  0.13264434  0.63802818    -0.23250
C712        C  0.73408672  0.14119349  0.67438710     0.19640
F713        F  0.76840746  0.15691137  0.69773476    -0.13210
F714        F  0.68283402  0.14002570  0.72301298    -0.15580
F715        F  0.71500601  0.10486590  0.58014705    -0.15580
F716        F  0.62909636  0.08029690  0.60756354    -0.13210
C717        C  0.68866532  0.88270256  0.68385049     0.24800
C718        C  0.65290587  0.90228541  0.66233798    -0.23310
C719        C  0.66229826  0.91203412  0.62633776     0.19700
C720        C  0.70713671  0.90278599  0.61249332     0.24740
C721        C  0.74314598  0.88449218  0.63470949    -0.23250
C722        C  0.73305964  0.87516116  0.67063485     0.19640
F723        F  0.76700825  0.86072270  0.69380065    -0.13210
F724        F  0.68134833  0.87398959  0.71886719    -0.15580
F725        F  0.71538168  0.91206147  0.57770672    -0.15580
F726        F  0.62910469  0.93307388  0.60526075    -0.13210
C727        C  0.28468919  0.89106563  0.69133691     0.24800
C728        C  0.32293332  0.90355759  0.66987168    -0.23310
C729        C  0.31527359  0.90881576  0.63297153     0.19700
C730        C  0.26991936  0.90239588  0.61813787     0.24740
C731        C  0.23172973  0.89123925  0.64010896    -0.23250
C732        C  0.23988133  0.88610061  0.67687221     0.19640
F733        F  0.20392466  0.87666667  0.69915436    -0.13210
F734        F  0.29049469  0.88559422  0.72701307    -0.15580
F735        F  0.26339099  0.90671083  0.58249457    -0.15580
F736        F  0.35107954  0.92261924  0.61168244    -0.13210
C737        C  0.28829034  0.06222807  0.66485983     0.24800
C738        C  0.32579842  0.09878031  0.66685554    -0.23310
C739        C  0.31988776  0.14769039  0.65143271     0.19700
C740        C  0.27607864  0.16115498  0.63730009     0.24740
C741        C  0.23784642  0.12557777  0.63791296    -0.23250
C742        C  0.24512497  0.07533210  0.65051968     0.19640
F743        F  0.20930899  0.04003921  0.65184038    -0.13210
F744        F  0.29253821  0.01401982  0.67847030    -0.15580
F745        F  0.27046476  0.20961143  0.62421643    -0.15580
F746        F  0.35530024  0.18355351  0.65220494    -0.13210
C747        C  0.64708968  0.18350521  0.88845939     0.24800
C748        C  0.64244865  0.23098206  0.87096609    -0.23310
C749        C  0.63327746  0.23051243  0.83415731     0.19700
C750        C  0.62787557  0.18320013  0.81517835     0.24740
C751        C  0.63031367  0.13566167  0.83294982    -0.23250
C752        C  0.64004961  0.13614789  0.86971816     0.19640
F753        F  0.64261008  0.09063690  0.88738474    -0.13210
F754        F  0.65907052  0.18316481  0.92353250    -0.15580
F755        F  0.61764391  0.18394526  0.77981981    -0.15580
F756        F  0.63053238  0.27606409  0.81653062    -0.13210
C757        C  0.19242155  0.34867336  0.85349003     0.24800
C758        C  0.20542623  0.35264192  0.88965156    -0.23310
C759        C  0.17164304  0.36228756  0.91538672     0.19700
C760        C  0.12547754  0.37041935  0.90478465     0.24740
C761        C  0.11286687  0.36849786  0.86838593    -0.23250
C762        C  0.14649562  0.35614288  0.84295443     0.19640
F763        F  0.13620051  0.35738928  0.80760329    -0.13210
F764        F  0.22485723  0.33949393  0.82819077    -0.15580
F765        F  0.09358552  0.38324194  0.92972835    -0.15580
F766        F  0.18348988  0.36442131  0.95049628    -0.13210
C767        C  0.19387006  0.66669951  0.84994558     0.24800
C768        C  0.20659561  0.65912221  0.88578271    -0.23310
C769        C  0.17171266  0.65123425  0.91092310     0.19700
C770        C  0.12466650  0.65095316  0.90027505     0.24740
C771        C  0.11204387  0.65964149  0.86449256    -0.23250
C772        C  0.14719027  0.66832817  0.83958192     0.19640
F773        F  0.13663062  0.67644232  0.80482386    -0.13210
F774        F  0.22710323  0.67450322  0.82507959    -0.15580
F775        F  0.09133047  0.64305374  0.92498754    -0.15580
F776        F  0.18312341  0.64581490  0.94580255    -0.13210
C777        C  0.81382013  0.65604302  0.91027525     0.24800
C778        C  0.77753546  0.65835133  0.88502674    -0.23310
C779        C  0.78826525  0.66000054  0.84862621     0.19700
C780        C  0.83441495  0.66131077  0.83764073     0.24740
C781        C  0.87091533  0.65819083  0.86272205    -0.23250
C782        C  0.86026209  0.65507486  0.89913756     0.19640
F783        F  0.89496493  0.65187115  0.92388717    -0.13210
F784        F  0.80436919  0.65686347  0.94557834    -0.15580
F785        F  0.84314264  0.66425946  0.80232258    -0.15580
F786        F  0.75364095  0.66277603  0.82372590    -0.13210
C787        C  0.82911232  0.35291719  0.84073956     0.24800
C788        C  0.86363150  0.36731587  0.86603628    -0.23310
C789        C  0.85176577  0.37139640  0.90229946     0.19700
C790        C  0.80554026  0.36414729  0.91277667     0.24740
C791        C  0.77075810  0.35289802  0.88712042    -0.23250
C792        C  0.78302225  0.34637455  0.85113662     0.19640
F793        F  0.74979317  0.33543022  0.82580170    -0.13210
F794        F  0.83898538  0.35077422  0.80547104    -0.15580
F795        F  0.79467341  0.36854283  0.94775085    -0.15580
F796        F  0.88459762  0.38569134  0.92719637    -0.13210
C797        C  0.89816468  0.68399708  0.65720227     0.24800
C798        C  0.90401139  0.69198514  0.69426607    -0.23310
C799        C  0.89649993  0.74201404  0.70921904     0.19700
C800        C  0.88388942  0.78302174  0.68772078     0.24740
C801        C  0.87807747  0.77503884  0.65095692    -0.23250
C802        C  0.88505718  0.72541139  0.63567732     0.19640
F803        F  0.87841125  0.71701020  0.60015337    -0.13210
F804        F  0.90588075  0.63659238  0.64176699    -0.15580
F805        F  0.87598083  0.83057231  0.70293452    -0.15580
F806        F  0.90045744  0.75120456  0.74488941    -0.13210
C807        C  0.04424154  0.73746776  0.68976005     0.24800
C808        C  0.06881436  0.69022448  0.68986332    -0.23310
C809        C  0.10511628  0.68310186  0.66551017     0.19700
C810        C  0.11870754  0.72381320  0.64352898     0.24740
C811        C  0.09630256  0.77220547  0.64558521    -0.23250
C812        C  0.05795090  0.77796753  0.66797489     0.19640
F813        F  0.03575658  0.82421241  0.67084092    -0.13210
F814        F  0.00755972  0.74543177  0.71154090    -0.15580
F815        F  0.15498427  0.71670790  0.62118258    -0.15580
F816        F  0.12911357  0.63793874  0.66421254    -0.13210
C817        C  0.09588952  0.28883055  0.72444884     0.24800
C818        C  0.08295968  0.33475490  0.70730130    -0.23310
C819        C  0.08386343  0.33599003  0.66986239     0.19700
C820        C  0.09693455  0.29182435  0.65001508     0.24740
C821        C  0.11007140  0.24629849  0.66734688    -0.23250
C822        C  0.10993851  0.24528682  0.70464229     0.19640
F823        F  0.12283018  0.20167771  0.72183879    -0.13210
F824        F  0.09504289  0.28607685  0.76045838    -0.15580
F825        F  0.09724646  0.29357444  0.61392603    -0.15580
F826        F  0.07032627  0.37916276  0.65246541    -0.13210
C827        C  0.89878922  0.28439940  0.71407124     0.24800
C828        C  0.90283047  0.33457038  0.69969841    -0.23310
C829        C  0.89472733  0.34065919  0.66290414     0.19700
C830        C  0.88229497  0.29746021  0.64117326     0.24740
C831        C  0.87826890  0.24789215  0.65587446    -0.23250
C832        C  0.88664339  0.24155119  0.69228406     0.19640
F833        F  0.88147277  0.19383199  0.70690400    -0.13210
F834        F  0.90543256  0.27683573  0.74942646    -0.15580
F835        F  0.87334077  0.30401837  0.60599298    -0.15580
F836        F  0.89959055  0.38806017  0.64782966    -0.13210
loop_ 
_geom_bond_atom_site_label_1 
_geom_bond_atom_site_label_2 
_geom_bond_distance 
_geom_bond_site_symmetry_2 
_ccdc_geom_bond_type 
O1          Zr13   2.398       .  S
O1            C3   1.274       .  A
O2          Zr39   2.450       .  S
O2            C3   1.290       .  A
C3          C788   1.463       .  S
O4          Zr16   2.460       .  S
O4            C6   1.291       .  A
O5          Zr40   2.392       .  S
O5            C6   1.282       .  A
C6          C798   1.478       .  S
O7          Zr16   2.456       .  S
O7            C9   1.291       .  A
O8          Zr39   2.401       .  S
O8            C9   1.284       .  A
C9          C828   1.477       .  S
O10         Zr13   2.405       .  S
O10          C12   1.269       .  A
O11         Zr40   2.433       .  S
O11          C12   1.279       .  A
C12         C781   1.472       .  S
Zr13         O14   2.435       .  S
Zr13         O15   2.438       .  S
Zr13         O19   2.371       .  S
Zr13         O20   2.375       .  S
Zr13         O43   2.366       .  S
Zr13         O45   2.383       .  S
O14          H57   0.990       .  S
O15          H56   0.990       .  S
O15          H60   0.990       .  S
Zr16         O17   2.434       .  S
Zr16         O18   2.434       .  S
Zr16         O20   2.369       .  S
Zr16         O19   2.378       .  S
Zr16         O44   2.363       .  S
Zr16         O46   2.365       .  S
O17          H58   0.990       .  S
O17          H61   0.990       .  S
O18          H51   0.990       .  S
O19         Zr39   2.383       .  S
O20         Zr40   2.400       .  S
O20          H47   0.964       .  S
O21         Zr33   2.407       .  S
O21          C23   1.269       .  A
O22         Zr40   2.428   1_455  S
O22          C23   1.278       .  A
C23         C771   1.473       .  S
O24         Zr36   2.469       .  S
O24          C26   1.293       .  A
O25         Zr39   2.407   1_455  S
O25          C26   1.285       .  A
C26         C818   1.478       .  S
O27         Zr36   2.461       .  S
O27          C29   1.291       .  A
O28         Zr40   2.391   1_455  S
O28          C29   1.282       .  A
C29         C808   1.480       .  S
O30         Zr33   2.401       .  S
O30          C32   1.276       .  A
O31         Zr39   2.437   1_455  S
O31          C32   1.288       .  A
C32         C761   1.459       .  S
Zr33         O34   2.445       .  S
Zr33         O35   2.434       .  S
Zr33         O41   2.386       .  S
Zr33         O42   2.371       .  S
Zr33         O45   2.380   1_455  S
Zr33         O43   2.367   1_455  S
O34          H54   0.988       .  S
O34          H59   0.990       .  S
O35          H55   0.990       .  S
Zr36         O37   2.434       .  S
Zr36         O38   2.437       .  S
Zr36         O42   2.376       .  S
Zr36         O41   2.373       .  S
Zr36         O46   2.368   1_455  S
Zr36         O44   2.359   1_455  S
O37          H53   0.990       .  S
O38          H52   0.990       .  S
O38          H62   0.990       .  S
Zr39         O42   2.384   1_655  S
Zr39         O44   2.394       .  S
Zr39         O45   2.376       .  S
Zr40         O41   2.407   1_655  S
Zr40         O43   2.392       .  S
Zr40         O46   2.390       .  S
O41          H49   0.964       .  S
O44          H48   0.964       .  S
O45          H50   0.963       .  S
C63         C791   1.471       .  S
C63          C64   1.390       .  A
C63          C68   1.412       .  A
C64          C65   1.383       .  A
C64          H69   1.086       .  S
C65         C748   1.471       .  S
C65          C66   1.404       .  A
C66          C67   1.421       .  A
C66          H70   1.083       .  S
C67         C205   1.498       .  S
C67          C68   1.415       .  A
C68          H71   1.083       .  S
O72         Zr84   2.410       .  S
O72          C74   1.270       .  A
O73        Zr110   2.441       .  S
O73          C74   1.280       .  A
C74         C751   1.468       .  S
O75         Zr87   2.372       .  S
O75          C77   1.274       .  A
O76        Zr111   2.454   1_565  S
O76          C77   1.289       .  A
C77         C688   1.457       .  S
O78         Zr87   2.370       .  S
O78          C80   1.273       .  A
O79        Zr110   2.471   1_565  S
O79          C80   1.293       .  A
C80         C701   1.463       .  S
O81         Zr84   2.387       .  S
O81          C83   1.276       .  A
O82        Zr111   2.459       .  S
O82          C83   1.292       .  A
C83         C678   1.473       .  S
Zr84         O85   2.436       .  S
Zr84         O86   2.443       .  S
Zr84         O90   2.369       .  S
Zr84         O91   2.380       .  S
Zr84        O114   2.375       .  S
Zr84        O116   2.373       .  S
O85         H128   0.990       .  S
O86         H127   0.988       .  S
O86         H131   0.989       .  S
Zr87         O88   2.437       .  S
Zr87         O89   2.435       .  S
Zr87         O91   2.358   1_565  S
Zr87         O90   2.353   1_565  S
Zr87        O115   2.367       .  S
Zr87        O117   2.360       .  S
O88         H129   0.990       .  S
O88         H132   0.990       .  S
O89         H122   0.990       .  S
O90        Zr110   2.365       .  S
O91        Zr111   2.363       .  S
O91         H118   0.966       .  S
O92        Zr104   2.506       .  S
O92          C94   1.299       .  A
O93        Zr111   2.388       .  S
O93          C94   1.282       .  A
C94         C738   1.490       .  S
O95        Zr107   2.506       .  S
O95          C97   1.300       .  A
O96        Zr110   2.372   1_565  S
O96          C97   1.279       .  A
C97         C718   1.483       .  S
O98        Zr107   2.500       .  S
O98         C100   1.299       .  A
O99        Zr111   2.386   1_565  S
O99         C100   1.282       .  A
C100        C728   1.485       .  S
O101       Zr104   2.487       .  S
O101        C103   1.296       .  A
O102       Zr110   2.378       .  S
O102        C103   1.280       .  A
C103        C708   1.473       .  S
Zr104       O105   2.436       .  S
Zr104       O106   2.434       .  S
Zr104       O112   2.362       .  S
Zr104       O113   2.377       .  S
Zr104       O116   2.389       .  S
Zr104       O114   2.388       .  S
O105        H125   0.990       .  S
O105        H130   0.990       .  S
O106        H126   0.990       .  S
Zr107       O108   2.433       .  S
Zr107       O109   2.434       .  S
Zr107       O113   2.367   1_565  S
Zr107       O112   2.370   1_565  S
Zr107       O117   2.385       .  S
Zr107       O115   2.381       .  S
O108        H124   0.990       .  S
O109        H123   0.990       .  S
O109        H133   0.990       .  S
Zr110       O113   2.396       .  S
Zr110       O115   2.379   1_545  S
Zr110       O116   2.398       .  S
Zr111       O112   2.404       .  S
Zr111       O114   2.383       .  S
Zr111       O117   2.379   1_545  S
O112        H120   0.964       .  S
O115        H119   0.966       .  S
O116        H121   0.965       .  S
C134        C768   1.474       .  S
C134        C135   1.392       .  A
C134        C139   1.412       .  A
C135        C136   1.382       .  A
C135        H140   1.086       .  S
C136        C691   1.470       .  S
C136        C137   1.405       .  A
C137        C138   1.417       .  A
C137        H141   1.083       .  S
C138        C225   1.498       .  S
C138        C139   1.418       .  A
C139        H142   1.083       .  S
C143        C778   1.473       .  S
C143        C144   1.411       .  A
C143        C148   1.391       .  A
C144        C145   1.418       .  A
C144        H149   1.083       .  S
C145        C222   1.502       .  S
C145        C146   1.422       .  A
C146        C147   1.408       .  A
C146        H150   1.083       .  S
C147        C698   1.475       .  S
C147        C148   1.383       .  A
C148        H151   1.087       .  S
C152        C758   1.464       .  S
C152        C153   1.389       .  A
C152        C157   1.407       .  A
C153        C154   1.385       .  A
C153        H158   1.086       .  S
C154        C681   1.476       .  S
C154        C155   1.407       .  A
C155        C156   1.420       .  A
C155        H159   1.083       .  S
C156        C202   1.494       .  S
C156        C157   1.411       .  A
C157        H160   1.083       .  S
C161        C741   1.489       .  S
C161        C162   1.401       .  A
C161        C166   1.411       .  A
C162        C163   1.400       .  A
C162        H167   1.084       .  S
C163        C821   1.473       .  S
C163        C164   1.404       .  A
C164        C165   1.403       .  A
C164        H168   1.084       .  S
C165        C463   1.475       .  S
C165        C166   1.411       .  A
C166        H169   1.084       .  S
C170        C731   1.492       .  S
C170        C171   1.416       .  A
C170        C175   1.400       .  A
C171        C172   1.419       .  A
C171        H176   1.083       .  S
C172        C457   1.475       .  S
C172        C173   1.401       .  A
C173        C174   1.399       .  A
C173        H177   1.085       .  S
C174        C811   1.476       .  S
C174        C175   1.395       .  A
C175        H178   1.085       .  S
C179        C711   1.489       .  S
C179        C180   1.400       .  A
C179        C184   1.412       .  A
C180        C181   1.390       .  A
C180        H185   1.085       .  S
C181        C831   1.462       .  S
C181        C182   1.395       .  A
C182        C183   1.402       .  A
C182        H186   1.084       .  S
C183        C480   1.469       .  S
C183        C184   1.416       .  A
C184        H187   1.083       .  S
C188        C721   1.497       .  S
C188        C189   1.401       .  A
C188        C193   1.415       .  A
C189        C190   1.392       .  A
C189        H194   1.085       .  S
C190        C801   1.466       .  S
C190        C191   1.397       .  A
C191        C192   1.403       .  A
C191        H195   1.084       .  S
C192        C486   1.475       .  S
C192        C193   1.420       .  A
C193        H196   1.083       .  S
O197       Zr209   2.428       .  S
O197        C199   1.285       .  A
O198       Zr235   2.457   1_554  S
O198        C199   1.295       .  A
C199        C270   1.489       .  S
O200       Zr212   2.445       .  S
O200        C202   1.288       .  A
O201       Zr236   2.460       .  S
O201        C202   1.294       .  A
O203       Zr212   2.438       .  S
O203        C205   1.288       .  A
O204       Zr235   2.462       .  S
O204        C205   1.294       .  A
O206       Zr209   2.447       .  S
O206        C208   1.288       .  A
O207       Zr236   2.453   1_554  S
O207        C208   1.293       .  A
C208        C412   1.490       .  S
Zr209       O210   2.434       .  S
Zr209       O211   2.434       .  S
Zr209       O215   2.370   1_554  S
Zr209       O216   2.361   1_554  S
Zr209       O239   2.371       .  S
Zr209       O241   2.379       .  S
O210        H253   0.990       .  S
O211        H252   0.990       .  S
O211        H256   0.990       .  S
Zr212       O213   2.439       .  S
Zr212       O214   2.434       .  S
Zr212       O216   2.369       .  S
Zr212       O215   2.366       .  S
Zr212       O240   2.376       .  S
Zr212       O242   2.377       .  S
O213        H254   0.990       .  S
O213        H257   0.990       .  S
O214        H247   0.990       .  S
O215       Zr235   2.385       .  S
O216       Zr236   2.392       .  S
O216        H243   0.964       .  S
O217       Zr229   2.435       .  S
O217        C219   1.286       .  A
O218       Zr236   2.454   1_554  S
O218        C219   1.294       .  A
C219        C261   1.485       .  S
O220       Zr232   2.455       .  S
O220        C222   1.291       .  A
O221       Zr235   2.461       .  S
O221        C222   1.295       .  A
O223       Zr232   2.458       .  S
O223        C225   1.292       .  A
O224       Zr236   2.453       .  S
O224        C225   1.293       .  A
O226       Zr229   2.429       .  S
O226        C228   1.286       .  A
O227       Zr235   2.465   1_554  S
O227        C228   1.295       .  A
C228        C281   1.492       .  S
Zr229       O230   2.438       .  S
Zr229       O231   2.434       .  S
Zr229       O237   2.364   1_554  S
Zr229       O238   2.364   1_554  S
Zr229       O241   2.377       .  S
Zr229       O239   2.379       .  S
O230        H250   0.990       .  S
O230        H255   0.990       .  S
O231        H251   0.990       .  S
Zr232       O233   2.434       .  S
Zr232       O234   2.433       .  S
Zr232       O238   2.368       .  S
Zr232       O237   2.370       .  S
Zr232       O242   2.379       .  S
Zr232       O240   2.380       .  S
O233        H249   0.990       .  S
O234        H248   0.990       .  S
O234        H258   0.990       .  S
Zr235       O238   2.385       .  S
Zr235       O240   2.403       .  S
Zr235       O241   2.401   1_556  S
Zr236       O237   2.395       .  S
Zr236       O239   2.395   1_556  S
Zr236       O242   2.401       .  S
O237        H245   0.965       .  S
O240        H244   0.966       .  S
O241        H246   0.966       .  S
C259        C661   1.470       .  S
C259        C260   1.403       .  A
C259        C264   1.396       .  A
C260        C261   1.405       .  A
C260        H265   1.084       .  S
C261        C262   1.418       .  A
C262        C263   1.408       .  A
C262        H266   1.084       .  S
C263        C668   1.479       .  S
C263        C264   1.390       .  A
C264        H267   1.085       .  S
C268        C648   1.463       .  S
C268        C269   1.400       .  A
C268        C273   1.395       .  A
C269        C270   1.402       .  A
C269        H274   1.084       .  S
C270        C271   1.420       .  A
C271        C272   1.412       .  A
C271        H275   1.083       .  S
C272        C638   1.480       .  S
C272        C273   1.391       .  A
C273        H276   1.085       .  S
C277        C621   1.467       .  S
C277        C278   1.400       .  A
C277        C282   1.406       .  A
C278        C279   1.397       .  A
C278        H283   1.084       .  S
C279        C628   1.494       .  S
C279        C280   1.413       .  A
C280        C281   1.415       .  A
C280        H284   1.083       .  S
C281        C282   1.404       .  A
C282        H285   1.084       .  S
O286       Zr298   2.401       .  S
O286        C288   1.272       .  A
O287       Zr324   2.462   1_565  S
O287        C288   1.288       .  A
C288        C671   1.471       .  S
O289       Zr301   2.504       .  S
O289        C291   1.299       .  A
O290       Zr325   2.378   1_565  S
O290        C291   1.280       .  A
C291        C581   1.489       .  S
O292       Zr301   2.517       .  S
O292        C294   1.302       .  A
O293       Zr324   2.377   1_565  S
O293        C294   1.279       .  A
C294        C611   1.497       .  S
O295       Zr298   2.412       .  S
O295        C297   1.277       .  A
O296       Zr325   2.464   1_565  S
O296        C297   1.289       .  A
C297        C631   1.480       .  S
Zr298       O299   2.439       .  S
Zr298       O300   2.438       .  S
Zr298       O304   2.365       .  S
Zr298       O305   2.377       .  S
Zr298       O328   2.375   1_565  S
Zr298       O330   2.387   1_565  S
O299        H342   0.988       .  S
O300        H341   0.990       .  S
O300        H345   0.990       .  S
Zr301       O302   2.433       .  S
Zr301       O303   2.434       .  S
Zr301       O305   2.392       .  S
Zr301       O304   2.389       .  S
Zr301       O329   2.359   1_565  S
Zr301       O331   2.370   1_565  S
O302        H343   0.990       .  S
O302        H346   0.990       .  S
O303        H336   0.990       .  S
O304       Zr324   2.381   1_565  S
O305       Zr325   2.395   1_565  S
O305        H332   0.966       .  S
O306       Zr318   2.393       .  S
O306        C308   1.274       .  A
O307       Zr325   2.467       .  S
O307        C308   1.291       .  A
C308        C641   1.469       .  S
O309       Zr321   2.508       .  S
O309        C311   1.300       .  A
O310       Zr324   2.376       .  S
O310        C311   1.280       .  A
C311        C601   1.488       .  S
O312       Zr321   2.495       .  S
O312        C314   1.297       .  A
O313       Zr325   2.384       .  S
O313        C314   1.282       .  A
C314        C588   1.484       .  S
O315       Zr318   2.385       .  S
O315        C317   1.276       .  A
O316       Zr324   2.460       .  S
O316        C317   1.291       .  A
C317        C568   1.464       .  S
Zr318       O319   2.439       .  S
Zr318       O320   2.433       .  S
Zr318       O326   2.362       .  S
Zr318       O327   2.365       .  S
Zr318       O330   2.357       .  S
Zr318       O328   2.369       .  S
O319        H339   0.989       .  S
O319        H344   0.990       .  S
O320        H340   0.990       .  S
Zr321       O322   2.434       .  S
Zr321       O323   2.437       .  S
Zr321       O327   2.387       .  S
Zr321       O326   2.388       .  S
Zr321       O331   2.372       .  S
Zr321       O329   2.355       .  S
O322        H338   0.990       .  S
O323        H337   0.990       .  S
O323        H347   0.990       .  S
Zr324       O327   2.381       .  S
Zr324       O329   2.405       .  S
Zr324       O330   2.365       .  S
Zr325       O326   2.386       .  S
Zr325       O328   2.363       .  S
Zr325       O331   2.400       .  S
O326        H334   0.965       .  S
O329        H333   0.962       .  S
O330        H335   0.966       .  S
O348       Zr360   2.441   1_455  S
O348        C350   1.288       .  A
O349       Zr386   2.412       .  S
O349        C350   1.286       .  A
C350        C658   1.479       .  S
O351       Zr363   2.431       .  S
O351        C353   1.279       .  A
O352       Zr387   2.432       .  S
O352        C353   1.283       .  A
C353        C538   1.466       .  S
O354       Zr363   2.396   1_455  S
O354        C356   1.270       .  A
O355       Zr386   2.461       .  S
O355        C356   1.288       .  A
C356        C531   1.476       .  S
O357       Zr360   2.452       .  S
O357        C359   1.289       .  A
O358       Zr387   2.394       .  S
O358        C359   1.282       .  A
C359        C618   1.488       .  S
Zr360       O361   2.435       .  S
Zr360       O362   2.437       .  S
Zr360       O366   2.375   1_655  S
Zr360       O367   2.367       .  S
Zr360       O390   2.356       .  S
Zr360       O392   2.359   1_655  S
O361        H404   0.990   1_655  S
O362        H403   0.990   1_655  S
O362        H407   0.990   1_655  S
Zr363       O364   2.448   1_655  S
Zr363       O365   2.436       .  S
Zr363       O367   2.383       .  S
Zr363       O366   2.359   1_655  S
Zr363       O391   2.399   1_655  S
Zr363       O393   2.371       .  S
O364        H405   0.987       .  S
O364        H408   0.990       .  S
O365        H398   0.990   1_655  S
O366       Zr386   2.385       .  S
O367       Zr387   2.401       .  S
O367        H394   0.965       .  S
O368       Zr380   2.432       .  S
O368        C370   1.286       .  A
O369       Zr387   2.407       .  S
O369        C370   1.285       .  A
C370        C651   1.481       .  S
O371       Zr383   2.394   1_455  S
O371        C373   1.279       .  A
O372       Zr386   2.440       .  S
O372        C373   1.289       .  A
C373        C561   1.457       .  S
O374       Zr383   2.409       .  S
O374        C376   1.271       .  A
O375       Zr387   2.429       .  S
O375        C376   1.279       .  A
C376        C548   1.476       .  S
O377       Zr380   2.460   1_455  S
O377        C379   1.291       .  A
O378       Zr386   2.402       .  S
O378        C379   1.284       .  A
C379        C518   1.477       .  S
Zr380       O381   2.434       .  S
Zr380       O382   2.434       .  S
Zr380       O388   2.370       .  S
Zr380       O389   2.364   1_655  S
Zr380       O392   2.354   1_655  S
Zr380       O390   2.373       .  S
O381        H401   0.990       .  S
O381        H406   0.990   1_655  S
O382        H402   0.990       .  S
Zr383       O384   2.436       .  S
Zr383       O385   2.436       .  S
Zr383       O389   2.373   1_655  S
Zr383       O388   2.367       .  S
Zr383       O393   2.368       .  S
Zr383       O391   2.361   1_655  S
O384        H400   0.990       .  S
O385        H399   0.990       .  S
O385        H409   0.990       .  S
Zr386       O389   2.388       .  S
Zr386       O391   2.389       .  S
Zr386       O392   2.398       .  S
Zr387       O388   2.407       .  S
Zr387       O390   2.384       .  S
Zr387       O393   2.389       .  S
O388        H396   0.965       .  S
O391        H395   0.965       .  S
O392        H397   0.963       .  S
C410        C521   1.466       .  S
C410        C411   1.405       .  A
C410        C415   1.394       .  A
C411        C412   1.409       .  A
C411        H416   1.084       .  S
C412        C413   1.418       .  A
C413        C414   1.409       .  A
C413        H417   1.083       .  S
C414        C571   1.476       .  S
C414        C415   1.389       .  A
C415        H418   1.086       .  S
C419        C598   1.475       .  S
C419        C420   1.388       .  A
C419        C424   1.414       .  A
C420        C421   1.385       .  A
C420        H425   1.087       .  S
C421        C558   1.470       .  S
C421        C422   1.407       .  A
C422        C423   1.413       .  A
C422        H426   1.084       .  S
C423        C460   1.483       .  S
C423        C424   1.420       .  A
C424        H427   1.083       .  S
C428        C591   1.487       .  S
C428        C429   1.393       .  A
C428        C433   1.415       .  A
C429        C430   1.391       .  A
C429        H434   1.086       .  S
C430        C551   1.478       .  S
C430        C431   1.406       .  A
C431        C432   1.412       .  A
C431        H435   1.084       .  S
C432        C483   1.484       .  S
C432        C433   1.421       .  A
C433        H436   1.083       .  S
C437        C608   1.485       .  S
C437        C438   1.393       .  A
C437        C442   1.413       .  A
C438        C439   1.391       .  A
C438        H443   1.085       .  S
C439        C528   1.477       .  S
C439        C440   1.409       .  A
C440        C441   1.412       .  A
C440        H444   1.084       .  S
C441        C466   1.482       .  S
C441        C442   1.415       .  A
C442        H445   1.083       .  S
C446        C578   1.492       .  S
C446        C447   1.400       .  A
C446        C451   1.416       .  A
C447        C448   1.396       .  A
C447        H452   1.083       .  S
C448        C541   1.481       .  S
C448        C449   1.407       .  A
C449        C450   1.400       .  A
C449        H453   1.084       .  S
C450        C477   1.475       .  S
C450        C451   1.411       .  A
C451        H454   1.083       .  S
O455       Zr467   2.422       .  S
O455        C457   1.282       .  A
O456       Zr493   2.468   1_465  S
O456        C457   1.296       .  A
O458       Zr470   2.407       .  S
O458        C460   1.280       .  A
O459       Zr494   2.500   1_455  S
O459        C460   1.301       .  A
O461       Zr470   2.422       .  S
O461        C463   1.283       .  A
O462       Zr493   2.463   1_455  S
O462        C463   1.295       .  A
O464       Zr467   2.413       .  S
O464        C466   1.281       .  A
O465       Zr494   2.491   1_465  S
O465        C466   1.300       .  A
Zr467       O468   2.434       .  S
Zr467       O469   2.435       .  S
Zr467       O473   2.360   1_565  S
Zr467       O474   2.364   1_565  S
Zr467       O497   2.373   1_455  S
Zr467       O499   2.368   1_455  S
O468        H511   0.990       .  S
O469        H510   0.990       .  S
O469        H514   0.990       .  S
Zr470       O471   2.438       .  S
Zr470       O472   2.435       .  S
Zr470       O474   2.368       .  S
Zr470       O473   2.358       .  S
Zr470       O498   2.368   1_455  S
Zr470       O500   2.377   1_455  S
O471        H512   0.990       .  S
O471        H515   0.990       .  S
O472        H505   0.990       .  S
O473       Zr493   2.381   1_455  S
O474       Zr494   2.400   1_455  S
O474        H501   0.965       .  S
O475       Zr487   2.398       .  S
O475        C477   1.278       .  A
O476       Zr494   2.493   1_565  S
O476        C477   1.300       .  A
O478       Zr490   2.423       .  S
O478        C480   1.282       .  A
O479       Zr493   2.455       .  S
O479        C480   1.293       .  A
O481       Zr490   2.421       .  S
O481        C483   1.282       .  A
O482       Zr494   2.491       .  S
O482        C483   1.300       .  A
O484       Zr487   2.417       .  S
O484        C486   1.282       .  A
O485       Zr493   2.470   1_565  S
O485        C486   1.296       .  A
Zr487       O488   2.439       .  S
Zr487       O489   2.435       .  S
Zr487       O495   2.368   1_565  S
Zr487       O496   2.352   1_565  S
Zr487       O499   2.368       .  S
Zr487       O497   2.377       .  S
O488        H508   0.990       .  S
O488        H513   0.990       .  S
O489        H509   0.990       .  S
Zr490       O491   2.435       .  S
Zr490       O492   2.434       .  S
Zr490       O496   2.360       .  S
Zr490       O495   2.365       .  S
Zr490       O500   2.372       .  S
Zr490       O498   2.368       .  S
O491        H507   0.990       .  S
O492        H506   0.990       .  S
O492        H516   0.990       .  S
Zr493       O496   2.384       .  S
Zr493       O498   2.400       .  S
Zr493       O499   2.395   1_545  S
Zr494       O495   2.404       .  S
Zr494       O497   2.404   1_545  S
Zr494       O500   2.406       .  S
O495        H503   0.965       .  S
O498        H502   0.966       .  S
O499        H504   0.966       .  S
C517        C518   1.407       .  A
C517        C522   1.390       .  A
C517        F524   1.358       .  S
C518        C519   1.413       .  A
C519        C520   1.401       .  A
C519        F526   1.357       .  S
C520        C521   1.400       .  A
C520        F525   1.357       .  S
C521        C522   1.403       .  A
C522        F523   1.359       .  S
C527        C528   1.401       .  A
C527        C532   1.398       .  A
C527        F534   1.358       .  S
C528        C529   1.408       .  A
C529        C530   1.398       .  A
C529        F536   1.358       .  S
C530        C531   1.407       .  A
C530        F535   1.358       .  S
C531        C532   1.411       .  A
C532        F533   1.358       .  S
C537        C538   1.399       .  A
C537        C542   1.406       .  A
C537        F544   1.357       .  S
C538        C539   1.398       .  A
C539        C540   1.383       .  A
C539        F546   1.343       .  S
C540        C541   1.399       .  A
C540        F545   1.359       .  S
C541        C542   1.418       .  A
C542        F543   1.357       .  S
C547        C548   1.405       .  A
C547        C552   1.394       .  A
C547        F554   1.358       .  S
C548        C549   1.410       .  A
C549        C550   1.402       .  A
C549        F556   1.358       .  S
C550        C551   1.403       .  A
C550        F555   1.358       .  S
C551        C552   1.407       .  A
C552        F553   1.358       .  S
C557        C558   1.407       .  A
C557        C562   1.393       .  A
C557        F564   1.359       .  S
C558        C559   1.400       .  A
C559        C560   1.399       .  A
C559        F566   1.357       .  S
C560        C561   1.409       .  A
C560        F565   1.358       .  S
C561        C562   1.401       .  A
C562        F563   1.359       .  S
C567        C568   1.407       .  A
C567        C572   1.407       .  A
C567        F574   1.357       .  S
C568        C569   1.405       .  A
C569        C570   1.394       .  A
C569        F576   1.359       .  S
C570        C571   1.403       .  A
C570        F575   1.358       .  S
C571        C572   1.406       .  A
C572        F573   1.357       .  S
C577        C578   1.419       .  A
C577        C582   1.408       .  A
C577        F584   1.358       .  S
C578        C579   1.400       .  A
C579        C580   1.390       .  A
C579        F586   1.358       .  S
C580        C581   1.413       .  A
C580        F585   1.351   1_565  S
C581        C582   1.403       .  A
C582        F583   1.357       .  S
C587        C588   1.411       .  A
C587        C592   1.414       .  A
C587        F594   1.357       .  S
C588        C589   1.407       .  A
C589        C590   1.391       .  A
C589        F596   1.359       .  S
C590        C591   1.405       .  A
C590        F595   1.359       .  S
C591        C592   1.410       .  A
C592        F593   1.357       .  S
C597        C598   1.400       .  A
C597        C602   1.390       .  A
C597        F604   1.359       .  S
C598        C599   1.409       .  A
C599        C600   1.410       .  A
C599        F606   1.357       .  S
C600        C601   1.410       .  A
C600        F605   1.357       .  S
C601        C602   1.412       .  A
C602        F603   1.359       .  S
C607        C608   1.395       .  A
C607        C612   1.393       .  A
C607        F614   1.359       .  S
C608        C609   1.415       .  A
C609        C610   1.406       .  A
C609        F616   1.358       .  S
C610        C611   1.406       .  A
C610        F615   1.357       .  S
C611        C612   1.422       .  A
C612        F613   1.355   1_565  S
C617        C618   1.414       .  A
C617        C622   1.401       .  A
C617        F624   1.358       .  S
C618        C619   1.415       .  A
C619        C620   1.391       .  A
C619        F626   1.357       .  S
C620        C621   1.398       .  A
C620        F625   1.359       .  S
C621        C622   1.401       .  A
C622        F623   1.358       .  S
C627        C628   1.404       .  A
C627        C632   1.391       .  A
C627        F634   1.358       .  S
C628        C629   1.417       .  A
C629        C630   1.412       .  A
C629        F636   1.357       .  S
C630        C631   1.403       .  A
C630        F635   1.357       .  S
C631        C632   1.405       .  A
C632        F633   1.353       .  S
C637        C638   1.407       .  A
C637        C642   1.406       .  A
C637        F644   1.357       .  S
C638        C639   1.403       .  A
C639        C640   1.398       .  A
C639        F646   1.358       .  S
C640        C641   1.407       .  A
C640        F645   1.358       .  S
C641        C642   1.405       .  A
C642        F643   1.357       .  S
C647        C648   1.400       .  A
C647        C652   1.396       .  A
C647        F654   1.358       .  S
C648        C649   1.400       .  A
C649        C650   1.389       .  A
C649        F656   1.359       .  S
C650        C651   1.411       .  A
C650        F655   1.356       .  S
C651        C652   1.414       .  A
C652        F653   1.358       .  S
C657        C658   1.412       .  A
C657        C662   1.393       .  A
C657        F664   1.357       .  S
C658        C659   1.410       .  A
C659        C660   1.393       .  A
C659        F666   1.358       .  S
C660        C661   1.404       .  A
C660        F665   1.359       .  S
C661        C662   1.402       .  A
C662        F663   1.358       .  S
C667        C668   1.403       .  A
C667        C672   1.401       .  A
C667        F674   1.357       .  S
C668        C669   1.407       .  A
C669        C670   1.399       .  A
C669        F676   1.358       .  S
C670        C671   1.405       .  A
C670        F675   1.359       .  S
C671        C672   1.408       .  A
C672        F673   1.358       .  S
C677        C678   1.402       .  A
C677        C682   1.397       .  A
C677        F684   1.358       .  S
C678        C679   1.413       .  A
C679        C680   1.397       .  A
C679        F686   1.359       .  S
C680        C681   1.399       .  A
C680        F685   1.358       .  S
C681        C682   1.411       .  A
C682        F683   1.358       .  S
C687        C688   1.404       .  A
C687        C692   1.402       .  A
C687        F694   1.358       .  S
C688        C689   1.406       .  A
C689        C690   1.393       .  A
C689        F696   1.359       .  S
C690        C691   1.401       .  A
C690        F695   1.358       .  S
C691        C692   1.406       .  A
C692        F693   1.357       .  S
C697        C698   1.405       .  A
C697        C702   1.397       .  A
C697        F704   1.358       .  S
C698        C699   1.403       .  A
C699        C700   1.403       .  A
C699        F706   1.357       .  S
C700        C701   1.409       .  A
C700        F705   1.358       .  S
C701        C702   1.405       .  A
C702        F703   1.357       .  S
C707        C708   1.402       .  A
C707        C712   1.386       .  A
C707        F714   1.359       .  S
C708        C709   1.408       .  A
C709        C710   1.412       .  A
C709        F716   1.357       .  S
C710        C711   1.411       .  A
C710        F715   1.357       .  S
C711        C712   1.409       .  A
C712        F713   1.359       .  S
C717        C718   1.404       .  A
C717        C722   1.388       .  A
C717        F724   1.358       .  S
C718        C719   1.410       .  A
C719        C720   1.416       .  A
C719        F726   1.357       .  S
C720        C721   1.412       .  A
C720        F725   1.357       .  S
C721        C722   1.409       .  A
C722        F723   1.359       .  S
C727        C728   1.407       .  A
C727        C732   1.391       .  A
C727        F734   1.359       .  S
C728        C729   1.411       .  A
C729        C730   1.414       .  A
C729        F736   1.357       .  S
C730        C731   1.410       .  A
C730        F735   1.357       .  S
C731        C732   1.407       .  A
C732        F733   1.359       .  S
C737        C738   1.414       .  A
C737        C742   1.393       .  A
C737        F744   1.355       .  S
C738        C739   1.405       .  A
C739        C740   1.409       .  A
C739        F746   1.357       .  S
C740        C741   1.414       .  A
C740        F745   1.357       .  S
C741        C742   1.400       .  A
C742        F743   1.359       .  S
C747        C748   1.404       .  A
C747        C752   1.400       .  A
C747        F754   1.358       .  S
C748        C749   1.404       .  A
C749        C750   1.398       .  A
C749        F756   1.358       .  S
C750        C751   1.405       .  A
C750        F755   1.357       .  S
C751        C752   1.405       .  A
C752        F753   1.358       .  S
C757        C758   1.405       .  A
C757        C762   1.388       .  A
C757        F764   1.359       .  S
C758        C759   1.399       .  A
C759        C760   1.398       .  A
C759        F766   1.357       .  S
C760        C761   1.409       .  A
C760        F765   1.358       .  S
C761        C762   1.402       .  A
C762        F763   1.358       .  S
C767        C768   1.409       .  A
C767        C772   1.391       .  A
C767        F774   1.359       .  S
C768        C769   1.400       .  A
C769        C770   1.402       .  A
C769        F776   1.357       .  S
C770        C771   1.411       .  A
C770        F775   1.358       .  S
C771        C772   1.403       .  A
C772        F773   1.358       .  S
C777        C778   1.402       .  A
C777        C782   1.402       .  A
C777        F784   1.357       .  S
C778        C779   1.407       .  A
C779        C780   1.392       .  A
C779        F786   1.359       .  S
C780        C781   1.404       .  A
C780        F785   1.357       .  S
C781        C782   1.410       .  A
C782        F783   1.358       .  S
C787        C788   1.402       .  A
C787        C792   1.392       .  A
C787        F794   1.359       .  S
C788        C789   1.411       .  A
C789        C790   1.399       .  A
C789        F796   1.358       .  S
C790        C791   1.399       .  A
C790        F795   1.357       .  S
C791        C792   1.409       .  A
C792        F793   1.359       .  S
C797        C798   1.410       .  A
C797        C802   1.402       .  A
C797        F804   1.358       .  S
C798        C799   1.410       .  A
C799        C800   1.390       .  A
C799        F806   1.358       .  S
C800        C801   1.399       .  A
C800        F805   1.359       .  S
C801        C802   1.403       .  A
C802        F803   1.357       .  S
C807        C808   1.412       .  A
C807        C812   1.391       .  A
C807        F814   1.357       .  S
C808        C809   1.407       .  A
C809        C810   1.398       .  A
C809        F816   1.358       .  S
C810        C811   1.408       .  A
C810        F815   1.358       .  S
C811        C812   1.402       .  A
C812        F813   1.358       .  S
C817        C818   1.408       .  A
C817        C822   1.396       .  A
C817        F824   1.357       .  S
C818        C819   1.408       .  A
C819        C820   1.401       .  A
C819        F826   1.358       .  S
C820        C821   1.404       .  A
C820        F825   1.358       .  S
C821        C822   1.402       .  A
C822        F823   1.358       .  S
C827        C828   1.409       .  A
C827        C832   1.391       .  A
C827        F834   1.358       .  S
C828        C829   1.411       .  A
C829        C830   1.399       .  A
C829        F836   1.358       .  S
C830        C831   1.400       .  A
C830        F835   1.358       .  S
C831        C832   1.399       .  A
C832        F833   1.359       .  S
