geometry optimzed in LAMMPS
_audit_creation_date              2020-11-30 
_audit_creation_method            'lammps2cif' 
_symmetry_space_group_name_H-M    'P1' 
_symmetry_Int_Tables_number       1 
_symmetry_cell_setting            triclinic 
loop_ 
_symmetry_equiv_pos_as_xyz 
  x,y,z 
_cell_length_a                    50.58654887354022 
_cell_length_b                    50.6060613444827 
_cell_length_c                    50.61849397262855 
_cell_angle_alpha                 89.96179173177678 
_cell_angle_beta                  90.29206395426714 
_cell_angle_gamma                 90.00396960490008 
loop_ 
_atom_site_label 
_atom_site_type_symbol 
_atom_site_fract_x 
_atom_site_fract_y 
_atom_site_fract_z 
_atom_site_charge 
C1          C  0.49699711  0.79953079  0.70028773     0.02760
C2          C  0.49282890  0.82619126  0.70697625    -0.13390
C3          C  0.49215213  0.84580644  0.68732594     0.00260
C4          C  0.49575511  0.83827352  0.66095458    -0.11910
C5          C  0.49851239  0.81168276  0.65370173     0.02750
C6          C  0.49939664  0.79237777  0.67355699    -0.11330
H7          H  0.49046741  0.83162313  0.72751904     0.08350
H8          H  0.49646440  0.85333329  0.64579153     0.05880
H9          H  0.50232321  0.77185733  0.66830475     0.05730
C10         C  0.49908713  0.71885197  0.78126407     0.02760
C11         C  0.50009451  0.69205825  0.77398277    -0.13390
C12         C  0.50326527  0.67241357  0.79328514     0.00260
C13         C  0.50560294  0.67992869  0.81983270    -0.11910
C14         C  0.50209455  0.70624691  0.82762421     0.02750
C15         C  0.49981182  0.72585265  0.80815274    -0.11330
H16         H  0.49790289  0.68658850  0.75340762     0.08350
H17         H  0.50868992  0.66486775  0.83476973     0.05880
H18         H  0.49813393  0.74641018  0.81385276     0.05730
C19         C  0.79046991  0.72029247  0.49078456     0.02760
C20         C  0.81698229  0.72837128  0.49183377    -0.13390
C21         C  0.83722885  0.70960420  0.49120687     0.00260
C22         C  0.83103939  0.68270571  0.49075918    -0.11910
C23         C  0.80465064  0.67416551  0.49009669     0.02750
C24         C  0.78433808  0.69316830  0.48969105    -0.11330
H25         H  0.82184971  0.74922385  0.49226701     0.08350
H26         H  0.84695774  0.66835724  0.49076553     0.05880
H27         H  0.76388176  0.68695875  0.48842823     0.05730
C28         C  0.70930668  0.80049537  0.49158207     0.02760
C29         C  0.68257830  0.79307734  0.49086072    -0.13390
C30         C  0.66282944  0.81240267  0.49115729     0.00260
C31         C  0.66973805  0.83913018  0.49126037    -0.11910
C32         C  0.69627967  0.84685641  0.49154525     0.02750
C33         C  0.71615272  0.82747511  0.49186932    -0.11330
H34         H  0.67717685  0.77235284  0.49086480     0.08350
H35         H  0.65432032  0.85402668  0.49129973     0.05880
H36         H  0.73675934  0.83331232  0.49201352     0.05730
C37         C  0.78974823  0.51056987  0.69896393     0.02760
C38         C  0.81645557  0.50981704  0.70673712    -0.13390
C39         C  0.83642264  0.50858889  0.68770431     0.00260
C40         C  0.82971066  0.50840983  0.66086134    -0.11910
C41         C  0.80322053  0.50970698  0.65286939     0.02750
C42         C  0.78321261  0.51108729  0.67192874    -0.11330
H43         H  0.82165164  0.50970123  0.72752839     0.08350
H44         H  0.84516732  0.50731270  0.64612957     0.05880
H45         H  0.76268042  0.51173645  0.66576848     0.05730
C46         C  0.70981010  0.51193400  0.78015379     0.02760
C47         C  0.68287508  0.51211014  0.77317558    -0.13390
C48         C  0.66346776  0.51129448  0.79283350     0.00260
C49         C  0.67096699  0.51097396  0.81946299    -0.11910
C50         C  0.69771889  0.51101902  0.82661972     0.02750
C51         C  0.71715117  0.51101097  0.80696262    -0.11330
H52         H  0.67705652  0.51240596  0.75255090     0.08350
H53         H  0.65593827  0.51071102  0.83466829     0.05880
H54         H  0.73786773  0.51097723  0.81250834     0.05730
C55         C  0.79089083  0.80056728  0.99128334     0.02760
C56         C  0.78421051  0.82754237  0.99249820    -0.13390
C57         C  0.80405908  0.84695046  0.99169171     0.00260
C58         C  0.83055242  0.83909693  0.99022668    -0.11910
C59         C  0.83747511  0.81237088  0.98966748     0.02750
C60         C  0.81765672  0.79307206  0.99039553    -0.11330
H61         H  0.76365394  0.83336791  0.99386023     0.08350
H62         H  0.84601020  0.85392909  0.98949296     0.05880
H63         H  0.82299886  0.77234619  0.98987900     0.05730
C64         C  0.71037925  0.71946078  0.99377516     0.02760
C65         C  0.68347384  0.72651757  0.99367435    -0.13390
C66         C  0.66388631  0.70689499  0.99372292     0.00260
C67         C  0.67129685  0.68026421  0.99395877    -0.11910
C68         C  0.69798297  0.67296090  0.99436693     0.02750
C69         C  0.71753936  0.69260161  0.99374759    -0.11330
H70         H  0.67782454  0.74716771  0.99328112     0.08350
H71         H  0.65616431  0.66508624  0.99398439     0.05880
H72         H  0.73822652  0.68703565  0.99391623     0.05730
C73         C  0.79250799  0.00795587  0.78063420     0.02760
C74         C  0.81938018  0.00939076  0.77376656    -0.13390
C75         C  0.83890402  0.01018777  0.79354463     0.00260
C76         C  0.83146826  0.00858424  0.82009585    -0.11910
C77         C  0.80488131  0.00592999  0.82723895     0.02750
C78         C  0.78536574  0.00611723  0.80740996    -0.11330
H79         H  0.82501112  0.01058617  0.75317368     0.08350
H80         H  0.84657980  0.00915288  0.83533435     0.05880
H81         H  0.76470193  0.00449945  0.81272889     0.05730
C82         C  0.71060108  0.00709034  0.70028336     0.02760
C83         C  0.68388945  0.00949091  0.70755463    -0.13390
C84         C  0.66405851  0.01123587  0.68815503     0.00260
C85         C  0.67098922  0.01018211  0.66145349    -0.11910
C86         C  0.69744060  0.00773385  0.65388151     0.02750
C87         C  0.71727829  0.00633950  0.67331536    -0.11330
H88         H  0.67855892  0.01008318  0.72825511     0.08350
H89         H  0.65566926  0.01114389  0.64643061     0.05880
H90         H  0.73782256  0.00511468  0.66747765     0.05730
C91         C  0.99910620  0.79901422  0.78009137     0.02760
C92         C  0.00197925  0.82570967  0.77294859    -0.13390
C93         C  0.00253271  0.84540595  0.79241215     0.00260
C94         C  0.00136907  0.83795716  0.81901555    -0.11910
C95         C  0.99850989  0.81147426  0.82662925     0.02750
C96         C  0.99678230  0.79203333  0.80692399    -0.11330
H97         H  0.00394093  0.83105117  0.75232675     0.08350
H98         H  0.00239672  0.85312743  0.83407870     0.05880
H99         H  0.99358702  0.77157815  0.81232299     0.05730
C100        C  0.99456160  0.71815233  0.69965238     0.02760
C101        C  0.99386060  0.69143048  0.70720388    -0.13390
C102        C  0.99647284  0.67148201  0.68825066     0.00260
C103        C  0.00150285  0.67851196  0.66202556    -0.11910
C104        C  0.00023864  0.70492919  0.65367473     0.02750
C105        C  0.99677368  0.72479969  0.67274281    -0.11330
H106        H  0.99093072  0.68625236  0.72775767     0.08350
H107        H  0.00503851  0.66304481  0.64767149     0.05880
H108        H  0.99579864  0.74531681  0.66680286     0.05730
C109        C  0.49954407  0.21839599  0.70017096     0.02760
C110        C  0.49918811  0.22538980  0.67323896    -0.13390
C111        C  0.50150645  0.20594652  0.65360702     0.00260
C112        C  0.50433776  0.17943458  0.66119592    -0.11910
C113        C  0.50525970  0.17212288  0.68787956     0.02750
C114        C  0.50259937  0.19167293  0.70730500    -0.11330
H115        H  0.49679943  0.24588877  0.66759543     0.08350
H116        H  0.50558257  0.16426796  0.64614836     0.05880
H117        H  0.50293570  0.18609497  0.72797375     0.05730
C118        C  0.49770119  0.29948799  0.78082117     0.02760
C119        C  0.49952347  0.32628562  0.77372093    -0.13390
C120        C  0.49924171  0.34596749  0.79322265     0.00260
C121        C  0.49745697  0.33859321  0.81984511    -0.11910
C122        C  0.49468217  0.31202312  0.82719370     0.02750
C123        C  0.49494221  0.29248932  0.80755725    -0.11330
H124        H  0.50161206  0.33175610  0.75313873     0.08350
H125        H  0.49795192  0.35372644  0.83497775     0.05880
H126        H  0.49297649  0.27188126  0.81302783     0.05730
O127        O  0.53827117  0.00794737  0.68037331    -0.72150
O128        O  0.46342781  0.01082161  0.68031124    -0.72360
O129        O  0.50258616  0.04654586  0.68044901    -0.72220
O130        O  0.49914768  0.97175376  0.68055576    -0.72230
O131        O  0.49928033  0.97149636  0.72341228    -0.72190
O132        O  0.50218957  0.04666561  0.72339657    -0.72210
O133        O  0.46328779  0.01014981  0.72326717    -0.72150
O134        O  0.53872910  0.00772853  0.72331905    -0.72340
V135        V  0.50085569  0.00918546  0.68129865     1.35240
V136        V  0.50094041  0.00903215  0.72255175     1.35170
C137        C  0.55127130  0.00789918  0.70172195     0.77090
C138        C  0.45063780  0.01078005  0.70166006     0.77150
C139        C  0.50292558  0.05933729  0.70186019     0.77020
C140        C  0.49837924  0.95880773  0.70194421     0.76980
C141        C  0.00595788  0.21795005  0.78079934     0.02760
C142        C  0.00632549  0.22435053  0.80787003    -0.13390
C143        C  0.00523703  0.20434828  0.82717137     0.00260
C144        C  0.00270429  0.17798889  0.81884288    -0.11910
C145        C  0.00352823  0.17135444  0.79203195     0.02750
C146        C  0.00472170  0.19133352  0.77304434    -0.11330
H147        H  0.00748758  0.24486808  0.81379002     0.08350
H148        H  0.00051015  0.16232803  0.83325643     0.05880
H149        H  0.00511838  0.18616314  0.75227695     0.05730
C150        C  0.00083330  0.29941473  0.70075583     0.02760
C151        C  0.00096963  0.29285813  0.67369800    -0.13390
C152        C  0.99672447  0.31244111  0.65437931     0.00260
C153        C  0.99338176  0.33869967  0.66285119    -0.11910
C154        C  0.99718298  0.34584036  0.68926864     0.02750
C155        C  0.99986712  0.32607297  0.70839387    -0.11330
H156        H  0.00470113  0.27261839  0.66800012     0.08350
H157        H  0.98945619  0.35420779  0.64859680     0.05880
H158        H  0.00154380  0.33140492  0.72906044     0.05730
C159        C  0.21153390  0.00740764  0.78081226     0.02760
C160        C  0.21791342  0.00835544  0.80787141    -0.13390
C161        C  0.19778507  0.00826442  0.82689610     0.00260
C162        C  0.17128165  0.00755460  0.81861287    -0.11910
C163        C  0.16478284  0.00709597  0.79172955     0.02750
C164        C  0.18489483  0.00716391  0.77284892    -0.11330
H165        H  0.23842593  0.00919074  0.81406930     0.08350
H166        H  0.15560696  0.00755959  0.83315384     0.05880
H167        H  0.17983540  0.00692487  0.75202567     0.05730
C168        C  0.29152056  0.01086123  0.69987083     0.02760
C169        C  0.31836368  0.01095949  0.70712510    -0.13390
C170        C  0.33794487  0.01242074  0.68773493     0.00260
C171        C  0.33063481  0.01318226  0.66102432    -0.11910
C172        C  0.30390305  0.01332929  0.65344146     0.02750
C173        C  0.28436651  0.01170278  0.67300135    -0.11330
H174        H  0.32396359  0.01038550  0.72780578     0.08350
H175        H  0.34589046  0.01385620  0.64606920     0.05880
H176        H  0.26366436  0.01186335  0.66740656     0.05730
O177        O  0.00311258  0.97090820  0.75849963    -0.72150
O178        O  0.99901503  0.04606965  0.75717185    -0.72360
O179        O  0.03868534  0.01028604  0.75596849    -0.72220
O180        O  0.96360500  0.00649157  0.75949277    -0.72230
O181        O  0.96579118  0.01005370  0.80224674    -0.72190
O182        O  0.04078553  0.00882606  0.79885948    -0.72210
O183        O  0.00387103  0.04660612  0.79988261    -0.72150
O184        O  0.00293303  0.97193215  0.80141498    -0.72340
V185        V  0.00113056  0.00847182  0.75856877     1.35240
V186        V  0.00325093  0.00930463  0.79976016     1.35170
C187        C  0.00392768  0.95869097  0.78030097     0.77090
C188        C  0.00121300  0.05904300  0.77842683     0.77150
C189        C  0.05247913  0.00971714  0.77686977     0.77020
C190        C  0.95195665  0.00821891  0.78145625     0.76980
C191        C  0.20850207  0.51019109  0.70055299     0.02760
C192        C  0.21453973  0.51242108  0.67354316    -0.13390
C193        C  0.19420524  0.51232569  0.65454562     0.00260
C194        C  0.16794073  0.50955077  0.66273539    -0.11910
C195        C  0.16170075  0.50742232  0.68956717     0.02750
C196        C  0.18202109  0.50800014  0.70851328    -0.11330
H197        H  0.23494788  0.51419042  0.66737265     0.08350
H198        H  0.15220944  0.50913915  0.64812208     0.05880
H199        H  0.17729591  0.50641774  0.72931124     0.05730
C200        C  0.29070336  0.51076627  0.78016972     0.02760
C201        C  0.31739764  0.50991271  0.77263724    -0.13390
C202        C  0.33736906  0.50894940  0.79191265     0.00260
C203        C  0.33053996  0.50967165  0.81865664    -0.11910
C204        C  0.30399736  0.51000897  0.82657997     0.02750
C205        C  0.28404376  0.51031646  0.80711451    -0.11330
H206        H  0.32255092  0.50961666  0.75188597     0.08350
H207        H  0.34611308  0.50952373  0.83344259     0.05880
H208        H  0.26343628  0.50992214  0.81282084     0.05730
O209        O  0.03674594  0.50871724  0.72548120    -0.72150
O210        O  0.96139309  0.50856959  0.72565797    -0.72360
O211        O  0.99894793  0.47096978  0.72546257    -0.72220
O212        O  0.99886258  0.54618385  0.72583254    -0.72230
O213        O  0.99788728  0.54612555  0.68296808    -0.72190
O214        O  0.99933919  0.47142636  0.68252056    -0.72210
O215        O  0.96128203  0.50818897  0.68269826    -0.72150
O216        O  0.03616029  0.50908568  0.68252611    -0.72340
V217        V  0.99903085  0.50859942  0.72481343     1.35240
V218        V  0.99871676  0.50874962  0.68355293     1.35170
C219        C  0.04919399  0.50873320  0.70385897     0.77090
C220        C  0.94862456  0.50847849  0.70411134     0.77150
C221        C  0.99908548  0.45846378  0.70384121     0.77020
C222        C  0.99771963  0.55894660  0.70440163     0.76980
O223        O  0.49853800  0.54634578  0.80071149    -0.72150
O224        O  0.50284098  0.47188194  0.80057449    -0.72360
O225        O  0.53810844  0.51119831  0.80067868    -0.72220
O226        O  0.46312002  0.50713482  0.80030342    -0.72230
O227        O  0.46292052  0.50943338  0.75741882    -0.72190
O228        O  0.53812443  0.50929295  0.75775474    -0.72210
O229        O  0.50053948  0.47151643  0.75771179    -0.72150
O230        O  0.50050538  0.54697877  0.75786163    -0.72340
V231        V  0.50063205  0.50912899  0.79970495     1.35240
V232        V  0.50053803  0.50927153  0.75846501     1.35170
C233        C  0.49872780  0.55941545  0.77947951     0.77090
C234        C  0.50242204  0.45894384  0.77928765     0.77150
C235        C  0.55082441  0.51066534  0.77926878     0.77020
C236        C  0.45024838  0.50841129  0.77884876     0.76980
C237        C  0.50195180  0.71952049  0.20006802     0.02760
C238        C  0.50581888  0.69285554  0.20682246    -0.13390
C239        C  0.50502062  0.67319286  0.18724813     0.00260
C240        C  0.50037943  0.68073994  0.16095006    -0.11910
C241        C  0.49858711  0.70736876  0.15368323     0.02750
C242        C  0.49877310  0.72671735  0.17343989    -0.11330
H243        H  0.50896137  0.68749824  0.22731505     0.08350
H244        H  0.49854709  0.66575654  0.14581002     0.05880
H245        H  0.49635711  0.74732935  0.16816461     0.05730
C246        C  0.50007877  0.80040984  0.28015503     0.02760
C247        C  0.49740326  0.82715589  0.27313936    -0.13390
C248        C  0.49332106  0.84631464  0.29267368     0.00260
C249        C  0.49116262  0.83825782  0.31905635    -0.11910
C250        C  0.49572982  0.81198519  0.32659567     0.02750
C251        C  0.50011110  0.79299571  0.30692597    -0.11330
H252        H  0.49919596  0.83298368  0.25263479     0.08350
H253        H  0.48758129  0.85300834  0.33415054     0.05880
H254        H  0.50382590  0.77261493  0.31229429     0.05730
O255        O  0.53823584  0.70001032  0.99176189    -0.72150
O256        O  0.46338260  0.70026893  0.98888000    -0.72360
O257        O  0.50197701  0.70047797  0.95332923    -0.72220
O258        O  0.49914008  0.69976814  0.02786389    -0.72230
O259        O  0.50016104  0.74270317  0.02855320    -0.72190
O260        O  0.50165214  0.74337353  0.95328839    -0.72210
O261        O  0.46327516  0.74320832  0.99029034    -0.72150
O262        O  0.53861514  0.74297882  0.99184548    -0.72340
V263        V  0.50077535  0.70101235  0.99054761     1.35240
V264        V  0.50096432  0.74227902  0.99097781     1.35170
C265        C  0.55115875  0.72137532  0.99168547     0.77090
C266        C  0.45059443  0.72169471  0.98912385     0.77150
C267        C  0.50187618  0.72188924  0.94051714     0.77020
C268        C  0.49854057  0.72103293  0.04088842     0.76980
C269        C  0.21118650  0.80111726  0.98969736     0.02760
C270        C  0.21850000  0.82797689  0.98857796    -0.13390
C271        C  0.19911972  0.84778807  0.98714786     0.00260
C272        C  0.17244664  0.84054574  0.98636448    -0.11910
C273        C  0.16471880  0.81399578  0.98732933     0.02750
C274        C  0.18417722  0.79426857  0.98883640    -0.11330
H275        H  0.23920402  0.83344723  0.98895914     0.08350
H276        H  0.15744133  0.85582949  0.98541562     0.05880
H277        H  0.17832008  0.77370402  0.98963667     0.05730
C278        C  0.29162251  0.71939374  0.99110084     0.02760
C279        C  0.31855916  0.72617210  0.99291523    -0.13390
C280        C  0.33802310  0.70643899  0.99277418     0.00260
C281        C  0.33043396  0.67988578  0.99130400    -0.11910
C282        C  0.30376620  0.67279056  0.98930833     0.02750
C283        C  0.28432868  0.69257699  0.98969026    -0.11330
H284        H  0.32437510  0.74675570  0.99378621     0.08350
H285        H  0.34547010  0.66461170  0.99118779     0.05880
H286        H  0.26365894  0.68717991  0.98802380     0.05730
C287        C  0.99721156  0.80053249  0.20091816     0.02760
C288        C  0.99384774  0.82680978  0.20916671    -0.13390
C289        C  0.99095293  0.84700935  0.19048288     0.00260
C290        C  0.99144534  0.84072398  0.16358864    -0.11910
C291        C  0.99609843  0.81478766  0.15482305     0.02750
C292        C  0.99937318  0.79474058  0.17381874    -0.11330
H293        H  0.99302085  0.83144873  0.23004199     0.08350
H294        H  0.98882207  0.85650208  0.14935293     0.05880
H295        H  0.00371841  0.77471416  0.16774924     0.05730
C296        C  0.99964280  0.71954180  0.28144459     0.02760
C297        C  0.99690736  0.69259333  0.27520574    -0.13390
C298        C  0.99577242  0.67335944  0.29525065     0.00260
C299        C  0.99783480  0.68160844  0.32172101    -0.11910
C300        C  0.99892199  0.70850156  0.32815903     0.02750
C301        C  0.99998825  0.72739412  0.30803728    -0.11330
H302        H  0.99556821  0.68669566  0.25468365     0.08350
H303        H  0.99823750  0.66716752  0.33750933     0.05880
H304        H  0.00062043  0.74818884  0.31308704     0.05730
O305        O  0.00274374  0.78278805  0.02880882    -0.72150
O306        O  0.99867570  0.78043947  0.95341057    -0.72360
O307        O  0.03849175  0.78136050  0.98925699    -0.72220
O308        O  0.96334817  0.78119206  0.99299220    -0.72230
O309        O  0.96314470  0.82390568  0.98846599    -0.72190
O310        O  0.03832222  0.82424967  0.99114421    -0.72210
O311        O  0.00170365  0.82323364  0.95252976    -0.72150
O312        O  0.99972571  0.82547895  0.02692701    -0.72340
V313        V  0.00088202  0.78219366  0.99107887     1.35240
V314        V  0.00076007  0.82336885  0.98977851     1.35170
C315        C  0.00147887  0.80480283  0.04069571     0.77090
C316        C  0.99902928  0.80173616  0.94022300     0.77150
C317        C  0.05121587  0.80282955  0.99047855     0.77020
C318        C  0.95047487  0.80246753  0.99072627     0.76980
C319        C  0.20875344  0.72016118  0.49441422     0.02760
C320        C  0.21565319  0.69320912  0.49501302    -0.13390
C321        C  0.19588693  0.67375367  0.49494040     0.00260
C322        C  0.16935441  0.68125503  0.49346271    -0.11910
C323        C  0.16225886  0.70791552  0.49176406     0.02750
C324        C  0.18195054  0.72739163  0.49266328    -0.11330
H325        H  0.23627123  0.68740828  0.49534883     0.08350
H326        H  0.15412421  0.66617483  0.49301936     0.05880
H327        H  0.17647137  0.74806944  0.49162744     0.05730
C328        C  0.29053195  0.79999454  0.49082621     0.02760
C329        C  0.28381699  0.82699086  0.49143167    -0.13390
C330        C  0.30366492  0.84639222  0.49040476     0.00260
C331        C  0.33014994  0.83850728  0.48908139    -0.11910
C332        C  0.33713225  0.81179757  0.48931183     0.02750
C333        C  0.31728077  0.79248979  0.49013167    -0.11330
H334        H  0.26326606  0.83279853  0.49291556     0.08350
H335        H  0.34559503  0.85334218  0.48822258     0.05880
H336        H  0.32259518  0.77174949  0.48988614     0.05730
O337        O  0.03756924  0.74264356  0.49234360    -0.72150
O338        O  0.96254363  0.74484499  0.49067799    -0.72360
O339        O  0.99932370  0.74132206  0.52891061    -0.72220
O340        O  0.00080558  0.74585594  0.45376232    -0.72230
O341        O  0.99762477  0.70305930  0.45149670    -0.72190
O342        O  0.00012429  0.69852223  0.52594508    -0.72210
O343        O  0.96141888  0.70188506  0.48994060    -0.72150
O344        O  0.03630327  0.69997364  0.48746304    -0.72340
V345        V  0.00005545  0.74288526  0.49132933     1.35240
V346        V  0.99890427  0.70171326  0.48877235     1.35170
C347        C  0.04964581  0.72093637  0.48996981     0.77090
C348        C  0.94929199  0.72369210  0.49070279     0.77150
C349        C  0.99921554  0.71898207  0.54015538     0.77020
C350        C  0.99933693  0.72506780  0.43994145     0.76980
O351        O  0.50156733  0.82161232  0.45321912    -0.72150
O352        O  0.49843174  0.82116477  0.52764002    -0.72360
O353        O  0.53745242  0.82138369  0.49213782    -0.72220
O354        O  0.46247862  0.82094206  0.48834210    -0.72230
O355        O  0.46266728  0.77807640  0.49133545    -0.72190
O356        O  0.53773485  0.77855298  0.48873325    -0.72210
O357        O  0.50174600  0.77836007  0.52780243    -0.72150
O358        O  0.49884841  0.77883623  0.45238654    -0.72340
V359        V  0.49993740  0.82043263  0.49036914     1.35240
V360        V  0.50018958  0.77921266  0.49010442     1.35170
C361        C  0.50067887  0.80052685  0.44000620     0.77090
C362        C  0.50088037  0.79992179  0.54047935     0.77150
C363        C  0.55032358  0.80003981  0.49043898     0.77020
C364        C  0.44985826  0.79940252  0.48929118     0.76980
C365        C  0.50567318  0.21966965  0.28108987     0.02760
C366        C  0.50444236  0.22744342  0.30769544    -0.13390
C367        C  0.50538500  0.20853035  0.32785072     0.00260
C368        C  0.50591147  0.18163172  0.32126648    -0.11910
C369        C  0.50770882  0.17337604  0.29481166     0.02750
C370        C  0.50741486  0.19267271  0.27477579    -0.11330
H371        H  0.50325529  0.24821893  0.31271692     0.08350
H372        H  0.50500982  0.16711762  0.33696484     0.05880
H373        H  0.50891655  0.18681589  0.25426201     0.05730
C374        C  0.50013980  0.30038579  0.20019550     0.02760
C375        C  0.50158843  0.29399095  0.17314735    -0.13390
C376        C  0.50406686  0.31405149  0.15406236     0.00260
C377        C  0.50504772  0.34043298  0.16256483    -0.11910
C378        C  0.50090332  0.34715471  0.18899414     0.02750
C379        C  0.49933955  0.32707123  0.20793732    -0.11330
H380        H  0.50071879  0.27351103  0.16711530     0.08350
H381        H  0.50768167  0.35614872  0.14825753     0.05880
H382        H  0.49705245  0.33213860  0.22859596     0.05730
O383        O  0.53672407  0.01015716  0.30157112    -0.72150
O384        O  0.46190915  0.00974023  0.30105438    -0.72360
O385        O  0.49946245  0.97276118  0.30142452    -0.72220
O386        O  0.49931429  0.04751436  0.30078326    -0.72230
O387        O  0.50114641  0.04748539  0.25795884    -0.72190
O388        O  0.49794142  0.97220450  0.25854270    -0.72210
O389        O  0.46164065  0.01135720  0.25813468    -0.72150
O390        O  0.53715788  0.00871109  0.25866716    -0.72340
V391        V  0.49931289  0.01010206  0.30032109     1.35240
V392        V  0.49940918  0.00991664  0.25909340     1.35170
C393        C  0.54972704  0.00940538  0.28036532     0.77090
C394        C  0.44902047  0.01041003  0.27966358     0.77150
C395        C  0.49881519  0.95968197  0.28018529     0.77020
C396        C  0.50078471  0.06031212  0.27936042     0.76980
O397        O  0.53717348  0.32104101  0.98683365    -0.72150
O398        O  0.46226544  0.32004412  0.99182634    -0.72360
O399        O  0.50237795  0.32207085  0.02653385    -0.72220
O400        O  0.49690822  0.31944821  0.95227253    -0.72230
O401        O  0.50084864  0.27669879  0.95315568    -0.72190
O402        O  0.49984736  0.27928547  0.02858266    -0.72210
O403        O  0.46286665  0.27710333  0.99019835    -0.72150
O404        O  0.53795425  0.27835826  0.99179049    -0.72340
V405        V  0.49974621  0.31980983  0.98941290     1.35240
V406        V  0.50041204  0.27861329  0.99088725     1.35170
C407        C  0.55028192  0.29989362  0.98918360     0.77090
C408        C  0.44985211  0.29836914  0.99126786     0.77150
C409        C  0.50081416  0.30136802  0.04032062     0.77020
C410        C  0.49822267  0.29783599  0.93995391     0.76980
C411        C  0.20813756  0.30037095  0.49088108     0.02760
C412        C  0.21463894  0.32743300  0.49085406    -0.13390
C413        C  0.19460582  0.34662349  0.49215300     0.00260
C414        C  0.16816040  0.33844464  0.49313141    -0.11910
C415        C  0.16145420  0.31167054  0.49243104     0.02750
C416        C  0.18148295  0.29262658  0.49170044    -0.11330
H417        H  0.23514956  0.33346189  0.48980583     0.08350
H418        H  0.15254351  0.35309469  0.49404108     0.05880
H419        H  0.17634542  0.27183726  0.49167068     0.05730
C420        C  0.28830572  0.21912973  0.49298704     0.02760
C421        C  0.31534031  0.22549207  0.49377052    -0.13390
C422        C  0.33454692  0.20543764  0.49376066     0.00260
C423        C  0.32627085  0.17899431  0.49219992    -0.11910
C424        C  0.29940519  0.17241019  0.49235099     0.02750
C425        C  0.28040982  0.19250863  0.49220822    -0.11330
H426        H  0.32131652  0.24601621  0.49495900     0.08350
H427        H  0.34078522  0.16328849  0.49118842     0.05880
H428        H  0.25958944  0.18746937  0.49195278     0.05730
O429        O  0.03599034  0.27572488  0.49171799    -0.72150
O430        O  0.96078600  0.27661174  0.48993129    -0.72360
O431        O  0.99907905  0.27461819  0.45307329    -0.72220
O432        O  0.99763629  0.27836139  0.52855322    -0.72230
O433        O  0.99947511  0.32103260  0.52586398    -0.72190
O434        O  0.99795412  0.31754693  0.45152824    -0.72210
O435        O  0.96136117  0.31957073  0.48952564    -0.72150
O436        O  0.03643570  0.31858123  0.48868976    -0.72340
V437        V  0.99838948  0.27709694  0.49075204     1.35240
V438        V  0.99884219  0.31829426  0.48882675     1.35170
C439        C  0.04895219  0.29703728  0.49086262     0.77090
C440        C  0.94834369  0.29826135  0.49003669     0.77150
C441        C  0.99823342  0.29569002  0.43957863     0.77020
C442        C  0.99864477  0.30062051  0.54004770     0.76980
O443        O  0.31190750  0.97322362  0.49165821    -0.72150
O444        O  0.30911126  0.04799646  0.48989433    -0.72360
O445        O  0.31024872  0.01158461  0.52792690    -0.72220
O446        O  0.31083123  0.00989759  0.45312496    -0.72230
O447        O  0.26790085  0.00826954  0.45250460    -0.72190
O448        O  0.26732265  0.00959686  0.52776136    -0.72210
O449        O  0.26613604  0.04656287  0.48933003    -0.72150
O450        O  0.26898352  0.97145693  0.49082766    -0.72340
V451        V  0.30965880  0.01060122  0.49057517     1.35240
V452        V  0.26839252  0.00900563  0.49009133     1.35170
C453        C  0.29096039  0.95962426  0.49202225     0.77090
C454        C  0.28722008  0.05997340  0.48957655     0.77150
C455        C  0.28881849  0.01083745  0.54059602     0.77020
C456        C  0.28950898  0.00881672  0.44007531     0.76980
C457        C  0.20911522  0.22084020  0.99330508     0.02760
C458        C  0.18235506  0.22818438  0.99454031    -0.13390
C459        C  0.16257910  0.20877511  0.99479492     0.00260
C460        C  0.16976443  0.18206610  0.99430809    -0.11910
C461        C  0.19632677  0.17444450  0.99247545     0.02750
C462        C  0.21604494  0.19393625  0.99238022    -0.11330
H463        H  0.17694611  0.24890232  0.99445162     0.08350
H464        H  0.15445465  0.16707807  0.99466359     0.05880
H465        H  0.23665108  0.18826114  0.99102066     0.05730
C466        C  0.29104801  0.30023703  0.99173138     0.02760
C467        C  0.28444865  0.32717206  0.99357034    -0.13390
C468        C  0.30434355  0.34652626  0.99326304     0.00260
C469        C  0.33076682  0.33873412  0.99029675    -0.11910
C470        C  0.33750526  0.31199656  0.98874838     0.02750
C471        C  0.31765172  0.29273457  0.98936656    -0.11330
H472        H  0.26394298  0.33298412  0.99562905     0.08350
H473        H  0.34625983  0.35351786  0.98965888     0.05880
H474        H  0.32290981  0.27199695  0.98845444     0.05730
C475        C  0.20865887  0.00983656  0.19992193     0.02760
C476        C  0.18188411  0.00937286  0.20719630    -0.13390
C477        C  0.16207158  0.00816836  0.18777812     0.00260
C478        C  0.16907330  0.00854209  0.16104963    -0.11910
C479        C  0.19564744  0.00940494  0.15343230     0.02750
C480        C  0.21544046  0.00996482  0.17298493    -0.11330
H481        H  0.17652640  0.00898747  0.22789626     0.08350
H482        H  0.15369597  0.00796977  0.14607082     0.05880
H483        H  0.23606118  0.01012419  0.16729076     0.05730
C484        C  0.28992165  0.00995795  0.28086325     0.02760
C485        C  0.31670780  0.00822068  0.27378750    -0.13390
C486        C  0.33638950  0.00678131  0.29332130     0.00260
C487        C  0.32929726  0.00764827  0.31999232    -0.11910
C488        C  0.30273037  0.00953218  0.32733653     0.02750
C489        C  0.28300581  0.01021140  0.30776495    -0.11330
H490        H  0.32222750  0.00798078  0.25312810     0.08350
H491        H  0.34454125  0.00709856  0.33510986     0.05880
H492        H  0.26240604  0.01128587  0.31343984     0.05730
C493        C  0.00402340  0.21944560  0.19939354     0.02760
C494        C  0.00480078  0.19228365  0.20556043    -0.13390
C495        C  0.00526110  0.17317376  0.18535143     0.00260
C496        C  0.00380361  0.18170171  0.15896521    -0.11910
C497        C  0.00389210  0.20863626  0.15262491     0.02750
C498        C  0.00360414  0.22742727  0.17282311    -0.11330
H499        H  0.00517946  0.18610530  0.22604236     0.08350
H500        H  0.00279082  0.16735366  0.14312265     0.05880
H501        H  0.00353275  0.24826465  0.16785799     0.05730
C502        C  0.99842589  0.29975396  0.28063295     0.02760
C503        C  0.99749497  0.29200568  0.30726562    -0.13390
C504        C  0.99652111  0.31098622  0.32729736     0.00260
C505        C  0.99729025  0.33786766  0.32063635    -0.11910
C506        C  0.99753902  0.34612127  0.29410203     0.02750
C507        C  0.99863744  0.32684933  0.27414316    -0.11330
H508        H  0.99705338  0.27120827  0.31237250     0.08350
H509        H  0.99752480  0.35244891  0.33630375     0.05880
H510        H  0.99932235  0.33285824  0.25361645     0.05730
O511        O  0.99903176  0.04768915  0.22293255    -0.72150
O512        O  0.99988224  0.97238485  0.22442394    -0.72360
O513        O  0.03711981  0.01066095  0.22338995    -0.72220
O514        O  0.96178176  0.00951234  0.22380097    -0.72230
O515        O  0.96181363  0.01282365  0.18097629    -0.72190
O516        O  0.03626411  0.00544355  0.18076396    -0.72210
O517        O  0.99516153  0.97193216  0.18171192    -0.72150
O518        O  0.00261801  0.04635106  0.18022604    -0.72340
V519        V  0.99945242  0.01001436  0.22290726     1.35240
V520        V  0.99900879  0.00914880  0.18173528     1.35170
C521        C  0.00123996  0.05983570  0.20120582     0.77090
C522        C  0.99674032  0.95943230  0.20326896     0.77150
C523        C  0.04943891  0.00779837  0.20188903     0.77020
C524        C  0.94906801  0.01185478  0.20233136     0.76980
O525        O  0.23238695  0.01192288  0.95285835    -0.72150
O526        O  0.23207375  0.01101769  0.02828882    -0.72360
O527        O  0.23301309  0.97384155  0.99013445    -0.72220
O528        O  0.23151807  0.04918346  0.99122664    -0.72230
O529        O  0.18860961  0.04799295  0.99307269    -0.72190
O530        O  0.19017023  0.97338053  0.98669964    -0.72210
O531        O  0.18927968  0.00723597  0.02741525    -0.72150
O532        O  0.18949822  0.01397197  0.95284098    -0.72340
V533        V  0.23148225  0.01149755  0.99061330     1.35240
V534        V  0.19024489  0.01067790  0.99010056     1.35170
C535        C  0.21086442  0.01360138  0.94006957     0.77090
C536        C  0.21054992  0.00821392  0.04059555     0.77150
C537        C  0.21178367  0.96088362  0.98744299     0.77020
C538        C  0.20970848  0.06134941  0.99253001     0.76980
O539        O  0.00110667  0.24281779  0.95230557    -0.72150
O540        O  0.99724468  0.24459450  0.02743776    -0.72360
O541        O  0.03680765  0.24478881  0.99193891    -0.72220
O542        O  0.96141099  0.24239766  0.98782095    -0.72230
O543        O  0.96305799  0.19993446  0.99414177    -0.72190
O544        O  0.03762038  0.20203798  0.98788441    -0.72210
O545        O  0.00359195  0.20209833  0.02820726    -0.72150
O546        O  0.99729926  0.20012088  0.95374755    -0.72340
V547        V  0.99912128  0.24295749  0.98989024     1.35240
V548        V  0.00033282  0.20183937  0.99096568     1.35170
C549        C  0.99921332  0.22104051  0.94020324     0.77090
C550        C  0.00066986  0.22357542  0.04054748     0.77150
C551        C  0.04998748  0.22365715  0.98957706     0.77020
C552        C  0.94946889  0.22068024  0.99129490     0.76980
C553        C  0.20923067  0.50865849  0.28080428     0.02760
C554        C  0.18259948  0.50954532  0.27274358    -0.13390
C555        C  0.16246575  0.50913887  0.29157554     0.00260
C556        C  0.16889828  0.50863301  0.31839340    -0.11910
C557        C  0.19522123  0.50629467  0.32689816     0.02750
C558        C  0.21546014  0.50652655  0.30790391    -0.11330
H559        H  0.17758222  0.51022061  0.25192202     0.08350
H560        H  0.15308848  0.50963597  0.33273546     0.05880
H561        H  0.23593520  0.50511157  0.31410500     0.05730
C562        C  0.28968777  0.50702832  0.19995874     0.02760
C563        C  0.28292272  0.50880960  0.17300241    -0.13390
C564        C  0.30273855  0.50839881  0.15363101     0.00260
C565        C  0.32928971  0.50654052  0.16145330    -0.11910
C566        C  0.33624682  0.50520963  0.18819862     0.02750
C567        C  0.31645699  0.50570097  0.20743973    -0.11330
H568        H  0.26235307  0.51033323  0.16714138     0.08350
H569        H  0.34469573  0.50631081  0.14662779     0.05880
H570        H  0.32185529  0.50488340  0.22816410     0.05730
O571        O  0.03733787  0.51168823  0.25760158    -0.72150
O572        O  0.96208583  0.50835420  0.25633906    -0.72360
O573        O  0.99775262  0.54753064  0.25682082    -0.72220
O574        O  0.00158464  0.47202708  0.25739640    -0.72230
O575        O  0.00032853  0.47273362  0.30028461    -0.72190
O576        O  0.99804888  0.54733707  0.29969529    -0.72210
O577        O  0.96178895  0.50881694  0.29927895    -0.72150
O578        O  0.03677380  0.51106629  0.30055029    -0.72340
V579        V  0.99972230  0.50985799  0.25782079     1.35240
V580        V  0.99927437  0.51001848  0.29906083     1.35170
C581        C  0.04977906  0.51175171  0.27932450     0.77090
C582        C  0.94917959  0.50826983  0.27766503     0.77150
C583        C  0.99730687  0.56025223  0.27833541     0.77020
C584        C  0.00133431  0.45957433  0.27913926     0.76980
O585        O  0.31155787  0.51348409  0.02767012    -0.72150
O586        O  0.31222476  0.50657618  0.95322172    -0.72360
O587        O  0.31148664  0.54735357  0.98702312    -0.72220
O588        O  0.31205932  0.47270974  0.99386103    -0.72230
O589        O  0.26929046  0.47201467  0.98981239    -0.72190
O590        O  0.26867952  0.54717664  0.99017389    -0.72210
O591        O  0.26940185  0.50972335  0.95223361    -0.72150
O592        O  0.26881299  0.50940912  0.02765031    -0.72340
V593        V  0.31100773  0.51001962  0.99043988     1.35240
V594        V  0.26979918  0.50960891  0.98995914     1.35170
C595        C  0.29021256  0.51217327  0.04042522     0.77090
C596        C  0.29102254  0.50726322  0.93996183     0.77150
C597        C  0.29000365  0.56003586  0.98828360     0.77020
C598        C  0.29084368  0.45957599  0.99218859     0.76980
O599        O  0.22621792  0.51020490  0.52894706    -0.72150
O600        O  0.22712552  0.51071831  0.45364903    -0.72360
O601        O  0.22656870  0.54812615  0.49149842    -0.72220
O602        O  0.22684161  0.47287606  0.49116220    -0.72230
O603        O  0.18388462  0.47300630  0.49094230    -0.72190
O604        O  0.18359765  0.54794556  0.49002519    -0.72210
O605        O  0.18420745  0.50990215  0.45320009    -0.72150
O606        O  0.18325845  0.51122035  0.52806789    -0.72340
V607        V  0.22587857  0.51050872  0.49131692     1.35240
V608        V  0.18460014  0.51049027  0.49061408     1.35170
C609        C  0.20452873  0.51086256  0.54125602     0.77090
C610        C  0.20572079  0.51025564  0.44060387     0.77150
C611        C  0.20501776  0.56074947  0.49050875     0.77020
C612        C  0.20532782  0.46016980  0.49061986     0.76980
O613        O  0.49617181  0.19989633  0.52675902    -0.72150
O614        O  0.50074609  0.20262109  0.45212718    -0.72360
O615        O  0.53573067  0.20186534  0.49191515    -0.72220
O616        O  0.46105426  0.20052839  0.48727773    -0.72230
O617        O  0.45984356  0.24324176  0.49103545    -0.72190
O618        O  0.53525673  0.24479831  0.49040967    -0.72210
O619        O  0.49713628  0.24538027  0.45318968    -0.72150
O620        O  0.49807397  0.24273534  0.52850801    -0.72340
V621        V  0.49838824  0.20208755  0.48947672     1.35240
V622        V  0.49756867  0.24327768  0.49077103     1.35170
C623        C  0.49662149  0.22077423  0.54042414     0.77090
C624        C  0.49952623  0.22438097  0.43990935     0.77150
C625        C  0.54823367  0.22345468  0.49158078     0.77020
C626        C  0.44763226  0.22149230  0.48918673     0.76980
O627        O  0.50041980  0.47248322  0.18187456    -0.72150
O628        O  0.49785615  0.54715629  0.18141896    -0.72360
O629        O  0.53654572  0.51149290  0.18175763    -0.72220
O630        O  0.46178003  0.50818160  0.18134971    -0.72230
O631        O  0.46150211  0.51128559  0.22418468    -0.72190
O632        O  0.53699587  0.50905364  0.22462222    -0.72210
O633        O  0.50066193  0.54773947  0.22420384    -0.72150
O634        O  0.49824296  0.47249450  0.22475832    -0.72340
V635        V  0.49916287  0.50982788  0.18246633     1.35240
V636        V  0.49928172  0.51011740  0.22368483     1.35170
C637        C  0.49926919  0.45974409  0.20330328     0.77090
C638        C  0.49960354  0.56027431  0.20260581     0.77150
C639        C  0.54953363  0.51091155  0.20313158     0.77020
C640        C  0.44888611  0.50943988  0.20258283     0.76980
C641        C  0.70893925  0.51034803  0.19922836     0.02760
C642        C  0.68227871  0.51072598  0.20690082    -0.13390
C643        C  0.66215442  0.50973892  0.18781677     0.00260
C644        C  0.66888121  0.50894613  0.16102362    -0.11910
C645        C  0.69534840  0.50854060  0.15298792     0.02750
C646        C  0.71539285  0.50866800  0.17228801    -0.11330
H647        H  0.67724701  0.51199259  0.22764308     0.08350
H648        H  0.65329266  0.50878291  0.14625517     0.05880
H649        H  0.73594030  0.50785866  0.16640226     0.05730
C650        C  0.79006403  0.51251391  0.27975096     0.02760
C651        C  0.81678052  0.51368030  0.27230279    -0.13390
C652        C  0.83665480  0.51487926  0.29163847     0.00260
C653        C  0.82962669  0.51517392  0.31833075    -0.11910
C654        C  0.80321330  0.51251466  0.32608417     0.02750
C655        C  0.78333182  0.51197947  0.30667278    -0.11330
H656        H  0.82205698  0.51311924  0.25159024     0.08350
H657        H  0.84503912  0.51624551  0.33324489     0.05880
H658        H  0.76279689  0.51016872  0.31240624     0.05730
O659        O  0.68845793  0.54746650  0.99089936    -0.72150
O660        O  0.68806946  0.47266428  0.98673846    -0.72360
O661        O  0.68712836  0.50782648  0.02610097    -0.72220
O662        O  0.68909356  0.51196336  0.95141454    -0.72230
O663        O  0.73198109  0.50916289  0.95252141    -0.72190
O664        O  0.72999987  0.51009162  0.02778166    -0.72210
O665        O  0.73086333  0.47214556  0.99068588    -0.72150
O666        O  0.73141832  0.54732330  0.98966243    -0.72340
V667        V  0.68903018  0.51002846  0.98881294     1.35240
V668        V  0.73027944  0.50973342  0.99012781     1.35170
C669        C  0.70998870  0.56013739  0.99049653     0.77090
C670        C  0.70932692  0.45964102  0.98859817     0.77150
C671        C  0.70813866  0.50811533  0.03967668     0.77020
C672        C  0.71075354  0.51041217  0.93924614     0.76980
C673        C  0.79030118  0.21939864  0.99387151     0.02760
C674        C  0.81710186  0.22668450  0.99520244    -0.13390
C675        C  0.83679501  0.20724251  0.99665745     0.00260
C676        C  0.82968312  0.18054418  0.99613172    -0.11910
C677        C  0.80311494  0.17302996  0.99474238     0.02750
C678        C  0.78336492  0.19248259  0.99396035    -0.11330
H679        H  0.82258706  0.24738307  0.99523514     0.08350
H680        H  0.84495089  0.16550093  0.99650847     0.05880
H681        H  0.76277004  0.18671626  0.99266068     0.05730
C682        C  0.70963397  0.30032951  0.99050754     0.02760
C683        C  0.68287219  0.29276367  0.99013903    -0.13390
C684        C  0.66299774  0.31190982  0.98781026     0.00260
C685        C  0.66989064  0.33864219  0.98649828    -0.11910
C686        C  0.69645149  0.34652892  0.98606502     0.02750
C687        C  0.71631877  0.32723279  0.98822160    -0.11330
H688        H  0.67756804  0.27204611  0.99117494     0.08350
H689        H  0.65437639  0.35339789  0.98562626     0.05880
H690        H  0.73692102  0.33309314  0.98810119     0.05730
C691        C  0.78987320  0.01017858  0.19997830     0.02760
C692        C  0.81671067  0.00859277  0.20723585    -0.13390
C693        C  0.83635545  0.00837213  0.18778444     0.00260
C694        C  0.82899929  0.00929661  0.16112824    -0.11910
C695        C  0.80248357  0.01185830  0.15357422     0.02750
C696        C  0.78284398  0.01167816  0.17306294    -0.11330
H697        H  0.82228212  0.00832913  0.22792594     0.08350
H698        H  0.84419966  0.00881632  0.14609894     0.05880
H699        H  0.76222704  0.01322133  0.16737599     0.05730
C700        C  0.70931485  0.00976371  0.28065945     0.02760
C701        C  0.71689123  0.01109462  0.30741206    -0.13390
C702        C  0.69763379  0.01140867  0.32724742     0.00260
C703        C  0.67089567  0.01108010  0.32021875    -0.11910
C704        C  0.66300814  0.00903329  0.29369900     0.02750
C705        C  0.68232668  0.00893190  0.27388195    -0.11330
H706        H  0.73765002  0.01177025  0.31274506     0.08350
H707        H  0.65609059  0.01185325  0.33562163     0.05880
H708        H  0.67645132  0.00749722  0.25332367     0.05730
O709        O  0.76868999  0.00962748  0.02772338    -0.72150
O710        O  0.76880506  0.01035721  0.95258061    -0.72360
O711        O  0.76953529  0.97236035  0.98995852    -0.72220
O712        O  0.76824278  0.04766583  0.99068264    -0.72230
O713        O  0.81104402  0.04798916  0.98696387    -0.72190
O714        O  0.81230385  0.97352969  0.99391576    -0.72210
O715        O  0.81160643  0.00722889  0.95308029    -0.72150
O716        O  0.81140694  0.01410426  0.02771670    -0.72340
V717        V  0.76957592  0.01003170  0.99018572     1.35240
V718        V  0.81078111  0.01072570  0.99039169     1.35170
C719        C  0.79007127  0.01209711  0.04049906     0.77090
C720        C  0.79023411  0.00817960  0.94003251     0.77150
C721        C  0.79122119  0.96020291  0.99293380     0.77020
C722        C  0.78954377  0.06055686  0.98845690     0.76980
C723        C  0.70735247  0.22004672  0.48795465     0.02760
C724        C  0.68055114  0.22744266  0.48699150    -0.13390
C725        C  0.66070767  0.20808495  0.48699153     0.00260
C726        C  0.66783194  0.18137354  0.48767149    -0.11910
C727        C  0.69434134  0.17366718  0.49029592     0.02750
C728        C  0.71411157  0.19314741  0.49004325    -0.11330
H729        H  0.67518184  0.24816765  0.48680032     0.08350
H730        H  0.65244992  0.16647886  0.48698339     0.05880
H731        H  0.73470123  0.18746341  0.49175547     0.05730
C732        C  0.78900611  0.30006722  0.49189562     0.02760
C733        C  0.81567002  0.29226154  0.49351817    -0.13390
C734        C  0.83573431  0.31129069  0.49516842     0.00260
C735        C  0.82903463  0.33810780  0.49473981    -0.11910
C736        C  0.80264515  0.34631275  0.49251971     0.02750
C737        C  0.78263686  0.32712169  0.49075223    -0.11330
H738        H  0.82073999  0.27145927  0.49380170     0.08350
H739        H  0.84462715  0.35277028  0.49583617     0.05880
H740        H  0.76218986  0.33315690  0.48865833     0.05730
O741        O  0.68807396  0.00934760  0.52831856    -0.72150
O742        O  0.68723559  0.01180006  0.45324111    -0.72360
O743        O  0.68725884  0.97292566  0.48946636    -0.72220
O744        O  0.68781410  0.04772636  0.49205175    -0.72230
O745        O  0.73069662  0.04778312  0.49081555    -0.72190
O746        O  0.73023909  0.97241390  0.49013874    -0.72210
O747        O  0.73019433  0.01066966  0.45291376    -0.72150
O748        O  0.73105567  0.00953536  0.52812659    -0.72340
V749        V  0.68845458  0.01037834  0.49076974     1.35240
V750        V  0.72973315  0.01008523  0.49051285     1.35170
C751        C  0.70969493  0.00943124  0.54096668     0.77090
C752        C  0.70858562  0.01199498  0.44035088     0.77150
C753        C  0.70858088  0.95992932  0.48933258     0.77020
C754        C  0.70921585  0.06057147  0.49158134     0.76980
O755        O  0.81328284  0.50949273  0.45202193    -0.72150
O756        O  0.81432065  0.51049293  0.52690610    -0.72360
O757        O  0.81331481  0.47262170  0.48980641    -0.72220
O758        O  0.81430721  0.54744741  0.48858855    -0.72230
O759        O  0.77137418  0.54825885  0.48952702    -0.72190
O760        O  0.77037031  0.47287410  0.48996932    -0.72210
O761        O  0.77133115  0.51084409  0.52736316    -0.72150
O762        O  0.77035195  0.51064283  0.45211906    -0.72340
V763        V  0.81293208  0.51003281  0.48941910     1.35240
V764        V  0.77165681  0.51060884  0.48977381     1.35170
C765        C  0.79174871  0.51027134  0.43928708     0.77090
C766        C  0.79303348  0.51080857  0.53983875     0.77150
C767        C  0.79179455  0.45995363  0.48951656     0.77020
C768        C  0.79308147  0.56060292  0.48828787     0.76980
C769        C  0.79698571  0.37508727  0.49073623    -0.06490
C770        C  0.81184789  0.38992208  0.47270070    -0.17620
C771        C  0.80968774  0.41732089  0.47135828     0.10710
C772        C  0.79210336  0.43074774  0.48825259    -0.06420
C773        C  0.77610069  0.41597139  0.50536933    -0.17650
C774        C  0.77868511  0.38836600  0.50716960     0.10740
S775        S  0.82930239  0.43401349  0.44696937    -0.32620
S776        S  0.75955845  0.37173051  0.53210472    -0.32620
H777        H  0.77936533  0.35346080  0.53903616     0.28750
H778        H  0.80852678  0.45116505  0.44023011     0.28740
H779        H  0.82549628  0.38002768  0.45954729     0.19330
H780        H  0.76262780  0.42611300  0.51849853     0.19340
C781        C  0.70089830  0.14518694  0.49340240    -0.06490
C782        C  0.72023686  0.13372046  0.47715789    -0.17620
C783        C  0.72462552  0.10632502  0.47721281     0.10710
C784        C  0.70843737  0.08978010  0.49277810    -0.06420
C785        C  0.68948362  0.10136976  0.50921379    -0.17650
C786        C  0.68652755  0.12870124  0.51076743     0.10740
S787        S  0.74938303  0.09348085  0.45532058    -0.32620
S788        S  0.66468464  0.14113398  0.53598904    -0.32620
H789        H  0.67842461  0.16499626  0.53990788     0.28750
H790        H  0.76385558  0.08149920  0.47587909     0.28740
H791        H  0.73151110  0.14606048  0.46382689     0.19330
H792        H  0.67694622  0.08900187  0.52127832     0.19340
C793        C  0.72833311  0.24047155  0.48823600    -0.06490
C794        C  0.74517562  0.24193269  0.51029716    -0.17620
C795        C  0.76456812  0.26155408  0.51230067     0.10710
C796        C  0.76777887  0.27990530  0.49149364    -0.06420
C797        C  0.75087817  0.27853134  0.46946096    -0.17650
C798        C  0.73141616  0.25892262  0.46748546     0.10740
S799        S  0.78387525  0.26269854  0.54234592    -0.32620
S800        S  0.71187160  0.25794504  0.43759599    -0.32620
H801        H  0.70838481  0.23037910  0.43726683     0.28750
H802        H  0.78695157  0.29032058  0.54274688     0.28740
H803        H  0.74271859  0.22807699  0.52643542     0.19330
H804        H  0.75334105  0.29241809  0.45335280     0.19340
C805        C  0.70817702  0.01308290  0.41127392    -0.06490
C806        C  0.71378551  0.98990372  0.39721644    -0.17620
C807        C  0.71155885  0.98902555  0.36967310     0.10710
C808        C  0.70468924  0.01213767  0.35560048    -0.06420
C809        C  0.70030948  0.03565205  0.36956166    -0.17650
C810        C  0.70163347  0.03634462  0.39720038     0.10740
S811        S  0.71518287  0.95735358  0.35390652    -0.32620
S812        S  0.69533975  0.06770507  0.41292752    -0.32620
H813        H  0.68499262  0.05795254  0.43660937     0.28750
H814        H  0.73040625  0.96697113  0.33295641     0.28740
H815        H  0.71926301  0.97211176  0.40775748     0.19330
H816        H  0.69471211  0.05336279  0.35886309     0.19340
C817        C  0.79594429  0.01482316  0.12514799    -0.06490
C818        C  0.77858011  0.99672993  0.11324314    -0.17620
C819        C  0.77560712  0.99564776  0.08570790     0.10710
C820        C  0.79048683  0.01302748  0.06962907    -0.06420
C821        C  0.80680256  0.03193654  0.08167869    -0.17650
C822        C  0.80913476  0.03350076  0.10911567     0.10740
S823        S  0.75351961  0.97078692  0.07271259    -0.32620
S824        S  0.82891237  0.06009906  0.12241590    -0.32620
H825        H  0.81503823  0.06220566  0.14634101     0.28750
H826        H  0.76778850  0.96520669  0.04972756     0.28740
H827        H  0.76826427  0.98245632  0.12538718     0.19330
H828        H  0.81759459  0.04590537  0.06957713     0.19340
C829        C  0.76926364  0.01067893  0.22065253    -0.06490
C830        C  0.76712248  0.98891824  0.23770529    -0.17620
C831        C  0.74738190  0.98777554  0.25695545     0.10710
C832        C  0.72960422  0.00912470  0.25971873    -0.06420
C833        C  0.73169074  0.03086409  0.24264999    -0.17650
C834        C  0.75145365  0.03202681  0.22340818     0.10740
S835        S  0.74547232  0.95820439  0.27675138    -0.32620
S836        S  0.75353261  0.06172118  0.20378936    -0.32620
H837        H  0.78116562  0.06128534  0.20090318     0.28750
H838        H  0.71798283  0.95900187  0.28064365     0.28740
H839        H  0.78058489  0.97239887  0.23558382     0.19330
H840        H  0.71824788  0.04738841  0.24482816     0.19340
C841        C  0.79667508  0.14467449  0.99261533    -0.06490
C842        C  0.80499681  0.13121350  0.96992777    -0.17620
C843        C  0.80175918  0.10392047  0.96747864     0.10710
C844        C  0.78970740  0.08961185  0.98812383    -0.06420
C845        C  0.78045205  0.10317194  0.01042594    -0.17650
C846        C  0.78428296  0.13047548  0.01313479     0.10740
S847        S  0.81380935  0.08863344  0.93766851    -0.32620
S848        S  0.77455589  0.14563160  0.04383425    -0.32620
H849        H  0.79468557  0.16478022  0.04450835     0.28750
H850        H  0.79723912  0.06644833  0.93845872     0.28740
H851        H  0.81457038  0.14205732  0.95416540     0.19330
H852        H  0.77165989  0.09218169  0.02653669     0.19340
C853        C  0.73065684  0.28001167  0.99224234    -0.06490
C854        C  0.74863519  0.27782163  0.97132498    -0.17620
C855        C  0.76783515  0.25790245  0.97102012     0.10710
C856        C  0.76953147  0.23993332  0.99235081    -0.06420
C857        C  0.75161226  0.24214109  0.01329291    -0.17650
C858        C  0.73246077  0.26211254  0.01363672     0.10740
S859        S  0.78894839  0.25595604  0.94246338    -0.32620
S860        S  0.71161684  0.26427367  0.04236353    -0.32620
H861        H  0.70855599  0.29188586  0.04162920     0.28750
H862        H  0.79215617  0.22836071  0.94303767     0.28740
H863        H  0.74721634  0.29130123  0.95473361     0.19330
H864        H  0.75302481  0.22861059  0.02984448     0.19340
C865        C  0.70292471  0.37510071  0.98419274    -0.06490
C866        C  0.71975382  0.38648265  0.00320438    -0.17620
C867        C  0.72294119  0.41397511  0.00491564     0.10710
C868        C  0.70860250  0.43055107  0.98744203    -0.06420
C869        C  0.69264814  0.41908361  0.96788178    -0.17650
C870        C  0.69042434  0.39173551  0.96546459     0.10740
S871        S  0.74465366  0.42623966  0.03052791    -0.32620
S872        S  0.67218057  0.37943801  0.93737099    -0.32620
H873        H  0.68664198  0.35581205  0.93508864     0.28750
H874        H  0.73147571  0.45012300  0.03518014     0.28740
H875        H  0.72960753  0.37395887  0.01755590     0.19330
H876        H  0.68225103  0.43159184  0.95388933     0.19340
C877        C  0.79714604  0.50928061  0.35454386    -0.06490
C878        C  0.77887739  0.52625001  0.36666276    -0.17620
C879        C  0.77604756  0.52673503  0.39425286     0.10710
C880        C  0.79213014  0.51012976  0.41011174    -0.06420
C881        C  0.80981982  0.49282882  0.39779591    -0.17650
C882        C  0.81155269  0.49128805  0.37040615     0.10740
S883        S  0.75290908  0.55015717  0.40778223    -0.32620
S884        S  0.83200721  0.46534138  0.35700995    -0.32620
H885        H  0.81743982  0.46236800  0.33344315     0.28750
H886        H  0.76770905  0.55633573  0.43047321     0.28740
H887        H  0.76763991  0.54004093  0.35469090     0.19330
H888        H  0.82231099  0.48007824  0.40955622     0.19340
C889        C  0.70124689  0.50748281  0.12427660    -0.06490
C890        C  0.68772982  0.48867050  0.10894846    -0.17620
C891        C  0.69007336  0.48798737  0.08150498     0.10710
C892        C  0.70694065  0.50618756  0.06872866    -0.06420
C893        C  0.72151268  0.52421211  0.08403606    -0.17650
C894        C  0.71832288  0.52556514  0.11151721     0.10740
S895        S  0.67061729  0.46347279  0.06426851    -0.32620
S896        S  0.73479270  0.55219071  0.12860044    -0.32620
H897        H  0.71396915  0.55732114  0.14617761     0.28750
H898        H  0.68780256  0.46005707  0.04294347     0.28740
H899        H  0.67476290  0.47455715  0.11846886     0.19330
H900        H  0.73418294  0.53847206  0.07434121     0.19340
C901        C  0.73007219  0.51165262  0.21945085    -0.06490
C902        C  0.74761622  0.49030408  0.22180519    -0.17620
C903        C  0.76693702  0.48973883  0.24167492     0.10710
C904        C  0.76914781  0.51122225  0.25936152    -0.06420
C905        C  0.75165374  0.53258209  0.25698962    -0.17650
C906        C  0.73240413  0.53319804  0.23707085     0.10740
S907        S  0.78757817  0.46074260  0.24389669    -0.32620
S908        S  0.71212750  0.56243007  0.23460204    -0.32620
H909        H  0.70907126  0.56160607  0.20698078     0.28750
H910        H  0.79115096  0.46159130  0.27145122     0.28740
H911        H  0.74577639  0.47363743  0.20849220     0.19330
H912        H  0.75349618  0.54923036  0.27032865     0.19340
C913        C  0.57863526  0.51280267  0.20254544    -0.06490
C914        C  0.59403542  0.49390150  0.21585273    -0.17620
C915        C  0.62146597  0.49251196  0.21193165     0.10710
C916        C  0.63386145  0.51104190  0.19506534    -0.06420
C917        C  0.61853606  0.53085338  0.18318677    -0.17650
C918        C  0.59129782  0.53193225  0.18674985     0.10740
S919        S  0.63900787  0.46558914  0.22741279    -0.32620
S920        S  0.57382050  0.55859631  0.17100463    -0.32620
H921        H  0.55702791  0.56257434  0.19267786     0.28750
H922        H  0.65659303  0.46129058  0.20642685     0.28740
H923        H  0.58449958  0.47918297  0.22807713     0.19330
H924        H  0.62789384  0.54551805  0.17071413     0.19340
C925        C  0.57731765  0.22324835  0.49251295    -0.06490
C926        C  0.59153336  0.23388160  0.47126105    -0.17620
C927        C  0.61885236  0.22963650  0.46893402     0.10710
C928        C  0.63234305  0.21510037  0.48869259    -0.06420
C929        C  0.61817956  0.20563200  0.51052784    -0.17650
C930        C  0.59097193  0.20958154  0.51266442     0.10740
S931        S  0.63484988  0.24161107  0.43951049    -0.32620
S932        S  0.57470057  0.19659019  0.54152956    -0.32620
H933        H  0.55536233  0.21649377  0.54276620     0.28750
H934        H  0.65313687  0.22080292  0.43747078     0.28740
H935        H  0.58105007  0.24410558  0.45558253     0.19330
H936        H  0.62841316  0.19477792  0.52595019     0.19340
C937        C  0.92003438  0.50784632  0.27770924    -0.06490
C938        C  0.90598693  0.52851162  0.26554430    -0.17620
C939        C  0.87861211  0.53129377  0.26921973     0.10710
C940        C  0.86496790  0.51261252  0.28484144    -0.06420
C941        C  0.87893537  0.49125596  0.29569877    -0.17650
C942        C  0.90609405  0.48869993  0.29226311     0.10740
S943        S  0.86271814  0.55984946  0.25495047    -0.32620
S944        S  0.92187022  0.46027872  0.30652793    -0.32620
H945        H  0.93876983  0.45677259  0.28482619     0.28750
H946        H  0.84407306  0.56328884  0.27515657     0.28740
H947        H  0.91660870  0.54339669  0.25443986     0.19330
H948        H  0.86856039  0.47648813  0.30719872     0.19340
C949        C  0.29644268  0.51046390  0.12506047    -0.06490
C950        C  0.30831511  0.53094172  0.11062976    -0.17620
C951        C  0.30585027  0.53232570  0.08316844     0.10710
C952        C  0.29069313  0.51325295  0.06956642    -0.06420
C953        C  0.27750626  0.49364410  0.08404485    -0.17650
C954        C  0.28067376  0.49168906  0.11154348     0.10740
S955        S  0.32193365  0.55918936  0.06637552    -0.32620
S956        S  0.26568580  0.46378762  0.12781789    -0.32620
H957        H  0.28633926  0.45967649  0.14606580     0.28750
H958        H  0.34224059  0.54283377  0.05682236     0.28740
H959        H  0.32020538  0.54559809  0.12080060     0.19330
H960        H  0.26600259  0.47880427  0.07370759     0.19340
C961        C  0.36447584  0.50435895  0.19563625    -0.06490
C962        C  0.37602709  0.52725760  0.20610921    -0.17620
C963        C  0.40348728  0.52946287  0.20877320     0.10710
C964        C  0.41980147  0.50798391  0.20172826    -0.06420
C965        C  0.40814200  0.48475686  0.19203887    -0.17650
C966        C  0.38070078  0.48266268  0.18905507     0.10740
S967        S  0.41643587  0.56096312  0.21887166    -0.32620
S968        S  0.36758554  0.45206052  0.17626669    -0.32620
H969        H  0.34273032  0.45406125  0.18842460     0.28750
H970        H  0.43835311  0.56033107  0.20189883     0.28740
H971        H  0.36367991  0.54415216  0.21063190     0.19330
H972        H  0.42055131  0.46820644  0.18652034     0.19340
C973        C  0.13434500  0.50878347  0.28392748    -0.06490
C974        C  0.12182032  0.53291319  0.27872757    -0.17620
C975        C  0.09423620  0.53459756  0.27723131     0.10710
C976        C  0.07883928  0.51148300  0.28008020    -0.06420
C977        C  0.09145557  0.48724437  0.28456950    -0.17650
C978        C  0.11898501  0.48561807  0.28646692     0.10740
S979        S  0.08014198  0.56704033  0.27359916    -0.32620
S980        S  0.13321315  0.45360686  0.29319014    -0.32620
H981        H  0.15805956  0.45874274  0.28201649     0.28750
H982        H  0.05692245  0.56191053  0.28782059     0.28740
H983        H  0.13352954  0.55080634  0.27749740     0.19330
H984        H  0.07974900  0.46949883  0.28706471     0.19340
C985        C  0.20526706  0.50889779  0.41137885    -0.06490
C986        C  0.18634705  0.49229622  0.39974380    -0.17620
C987        C  0.18505541  0.48865833  0.37251439     0.10710
C988        C  0.20088558  0.50437906  0.35573919    -0.06420
C989        C  0.22020646  0.52080234  0.36722954    -0.17650
C990        C  0.22289596  0.52289202  0.39480710     0.10740
S991        S  0.16365056  0.46262966  0.36068856    -0.32620
S992        S  0.24822398  0.54477799  0.40717081    -0.32620
H993        H  0.23462811  0.55302410  0.42977818     0.28750
H994        H  0.17870997  0.45701479  0.33808233     0.28740
H995        H  0.17271282  0.48141208  0.41200331     0.19330
H996        H  0.23260051  0.53290715  0.35470401     0.19340
C997        C  0.26885281  0.50681352  0.22042569    -0.06490
C998        C  0.25235194  0.52895179  0.22285563    -0.17620
C999        C  0.23341637  0.53047129  0.24289096     0.10710
C1000       C  0.23042858  0.50915598  0.26071561    -0.06420
C1001       C  0.24698444  0.48705476  0.25833315    -0.17650
C1002       C  0.26589184  0.48551907  0.23827447     0.10740
S1003       S  0.21426910  0.56045589  0.24514113    -0.32620
S1004       S  0.28488454  0.45544660  0.23588658    -0.32620
H1005       H  0.28758277  0.45598092  0.20824839     0.28750
H1006       H  0.21111016  0.55974393  0.27271946     0.28740
H1007       H  0.25471041  0.54547517  0.20944238     0.19330
H1008       H  0.24457238  0.47049480  0.27169126     0.19340
C1009       C  0.86508909  0.21427862  0.99731232    -0.06490
C1010       C  0.87626095  0.22548053  0.97464694    -0.17620
C1011       C  0.90369499  0.22769143  0.97204676     0.10710
C1012       C  0.92040328  0.21932041  0.99285682    -0.06420
C1013       C  0.90913400  0.20861466  0.01575356    -0.17650
C1014       C  0.88172462  0.20634095  0.01834881     0.10740
S1015       S  0.91605363  0.23868743  0.94070368    -0.32620
S1016       S  0.86915756  0.19293145  0.04884251    -0.32620
H1017       H  0.84458342  0.20589610  0.04776964     0.28750
H1018       H  0.93756321  0.22107047  0.94032547     0.28740
H1019       H  0.86360990  0.23093903  0.95818594     0.19330
H1020       H  0.92176634  0.20191347  0.03174189     0.19340
C1021       C  0.92002471  0.01315112  0.20178762    -0.06490
C1022       C  0.90554457  0.99259893  0.21350929    -0.17620
C1023       C  0.87815428  0.99041486  0.20956560     0.10710
C1024       C  0.86479845  0.00987853  0.19457009    -0.06420
C1025       C  0.87920383  0.03109515  0.18408987    -0.17650
C1026       C  0.90653008  0.03284633  0.18724082     0.10740
S1027       S  0.86190492  0.96143500  0.22239099    -0.32620
S1028       S  0.92269106  0.06053460  0.17158941    -0.32620
H1029       H  0.94548242  0.06074405  0.18734001     0.28750
H1030       H  0.84347849  0.95895847  0.20164961     0.28740
H1031       H  0.91586854  0.97720989  0.22430626     0.19330
H1032       H  0.86905727  0.04622742  0.17276320     0.19340
C1033       C  0.99687192  0.37491780  0.28772607    -0.06490
C1034       C  0.01538190  0.38580576  0.27007640    -0.17620
C1035       C  0.01716946  0.41330171  0.26613960     0.10710
C1036       C  0.00050258  0.43035964  0.28060758    -0.06420
C1037       C  0.98201482  0.41934102  0.29788478    -0.17650
C1038       C  0.97899552  0.39206666  0.30048567     0.10740
S1039       S  0.04211558  0.42525596  0.24381765    -0.32620
S1040       S  0.95093623  0.37961238  0.31857523    -0.32620
H1041       H  0.94074900  0.40407877  0.32683870     0.28750
H1042       H  0.04745000  0.44876464  0.25755891     0.28740
H1043       H  0.02912561  0.37292024  0.25998068     0.19330
H1044       H  0.96953956  0.43227748  0.30925522     0.19340
C1045       C  0.00199218  0.22364085  0.06954188    -0.06490
C1046       C  0.02470488  0.21293488  0.08130579    -0.17620
C1047       C  0.02668663  0.21008317  0.10864020     0.10710
C1048       C  0.00493644  0.21676517  0.12464628    -0.06420
C1049       C  0.98277028  0.22890637  0.11312581    -0.17650
C1050       C  0.98108002  0.23255594  0.08570647     0.10740
S1051       S  0.05761361  0.19813462  0.12185514    -0.32620
S1052       S  0.95123114  0.24734936  0.07281724    -0.32620
H1053       H  0.95162936  0.23502164  0.04806684     0.28750
H1054       H  0.05514354  0.20993883  0.14685998     0.28740
H1055       H  0.04111166  0.20678869  0.06903948     0.19330
H1056       H  0.96617519  0.23440614  0.12542334     0.19340
C1057       C  0.00639294  0.14430839  0.19148003    -0.06490
C1058       C  0.98991023  0.13381255  0.21119291    -0.17620
C1059       C  0.98828832  0.10648301  0.21571328     0.10710
C1060       C  0.00304958  0.08899067  0.19970601    -0.06420
C1061       C  0.02036337  0.09954982  0.18092827    -0.17650
C1062       C  0.02280814  0.12681611  0.17716528     0.10740
S1063       S  0.96666482  0.09564590  0.24180474    -0.32620
S1064       S  0.04846039  0.13875155  0.15549489    -0.32620
H1065       H  0.05550262  0.11424127  0.14449599     0.28750
H1066       H  0.95735508  0.07283420  0.22914609     0.28740
H1067       H  0.97751735  0.14691818  0.22265304     0.19330
H1068       H  0.03257661  0.08623944  0.16952306     0.19340
C1069       C  0.99928994  0.27925911  0.25976610    -0.06490
C1070       C  0.01975546  0.26051493  0.26056293    -0.17620
C1071       C  0.02209365  0.24107152  0.24106048     0.10710
C1072       C  0.00314651  0.23977946  0.22046678    -0.06420
C1073       C  0.98262131  0.25848040  0.21975973    -0.17650
C1074       C  0.98033877  0.27796257  0.23920531     0.10740
S1075       S  0.05038362  0.21944549  0.24298682    -0.32620
S1076       S  0.95221331  0.29980130  0.23716051    -0.32620
H1077       H  0.94883041  0.30243406  0.26459305     0.28750
H1078       H  0.05383548  0.21715050  0.21553074     0.28740
H1079       H  0.03446818  0.26148547  0.27616189     0.19330
H1080       H  0.96786629  0.25752691  0.20419979     0.19340
C1081       C  0.20217005  0.00837696  0.12490878    -0.06490
C1082       C  0.19165449  0.98754995  0.10983564    -0.17620
C1083       C  0.19535994  0.98628711  0.08252624     0.10710
C1084       C  0.20990085  0.00629361  0.06968985    -0.06420
C1085       C  0.22175173  0.02628052  0.08487518    -0.17650
C1086       C  0.21752581  0.02792612  0.11218594     0.10740
S1087       S  0.18135414  0.95843237  0.06520011    -0.32620
S1088       S  0.23046854  0.05650781  0.12912465    -0.32620
H1089       H  0.20910433  0.05927322  0.14657637     0.28750
H1090       H  0.20117265  0.95711869  0.04588590     0.28740
H1091       H  0.18024840  0.97219578  0.11944185     0.19330
H1092       H  0.23308165  0.04160001  0.07523922     0.19340
C1093       C  0.07851160  0.00725866  0.20106521    -0.06490
C1094       C  0.09079478  0.98554753  0.18912522    -0.17620
C1095       C  0.11824700  0.98450760  0.18637132     0.10710
C1096       C  0.13385765  0.00604910  0.19494398    -0.06420
C1097       C  0.12169377  0.02735836  0.20777653    -0.17650
C1098       C  0.09417770  0.02828980  0.21072499     0.10740
S1099       S  0.13219148  0.95520010  0.17168076    -0.32620
S1100       S  0.08012079  0.05769184  0.22500693    -0.32620
H1101       H  0.05836538  0.05882113  0.20768823     0.28750
H1102       H  0.15667806  0.95669051  0.18489004     0.28740
H1103       H  0.07889282  0.96925348  0.18190042     0.19330
H1104       H  0.13353856  0.04403031  0.21417247     0.19340
C1105       C  0.22949538  0.00947341  0.22058382    -0.06490
C1106       C  0.23067957  0.03037171  0.23877523    -0.17620
C1107       C  0.25047193  0.03143661  0.25820811     0.10710
C1108       C  0.26925746  0.01080237  0.26000784    -0.06420
C1109       C  0.26807336  0.98995721  0.24176300    -0.17650
C1110       C  0.24833235  0.98891273  0.22233658     0.10740
S1111       S  0.25125854  0.06012472  0.27933623    -0.32620
S1112       S  0.24767591  0.96028390  0.20112731    -0.32620
H1113       H  0.22001206  0.95924291  0.19841526     0.28750
H1114       H  0.27889564  0.06075412  0.28242953     0.28740
H1115       H  0.21642785  0.04631248  0.23741140     0.19330
H1116       H  0.28225130  0.97395060  0.24313234     0.19340
C1117       C  0.29793269  0.37500699  0.99573619    -0.06490
C1118       C  0.28007608  0.38645061  0.97775336    -0.17620
C1119       C  0.27669221  0.41392253  0.97642248     0.10710
C1120       C  0.29164858  0.43043839  0.99342999    -0.06420
C1121       C  0.30850985  0.41884048  0.01221756    -0.17650
C1122       C  0.31126773  0.39144173  0.01402269     0.10740
S1123       S  0.25393969  0.42627400  0.95176419    -0.32620
S1124       S  0.33161925  0.37869136  0.04050752    -0.32620
H1125       H  0.31785091  0.35469137  0.04322044     0.28750
H1126       H  0.26777219  0.44948303  0.94574237     0.28740
H1127       H  0.26960768  0.37399102  0.96380008     0.19330
H1128       H  0.31938311  0.43125880  0.02590963     0.19340
C1129       C  0.20844287  0.09048608  0.99224107    -0.06490
C1130       C  0.19237269  0.10240493  0.97305916    -0.17620
C1131       C  0.19018450  0.12981350  0.97118176     0.10710
C1132       C  0.20286197  0.14598460  0.99014958    -0.06420
C1133       C  0.21959449  0.13418784  0.00900488    -0.17650
C1134       C  0.22256305  0.10662272  0.01018937     0.10740
S1135       S  0.17137162  0.14290934  0.94373930    -0.32620
S1136       S  0.24292337  0.09319823  0.03620209    -0.32620
H1137       H  0.22693419  0.07093200  0.04036365     0.28750
H1138       H  0.18558698  0.16672724  0.94181022     0.28740
H1139       H  0.18164650  0.09024304  0.95916476     0.19330
H1140       H  0.22935248  0.14638810  0.02367694     0.19340
C1141       C  0.13421546  0.21574343  0.99297705    -0.06490
C1142       C  0.12004336  0.20636817  0.97102840    -0.17620
C1143       C  0.09284845  0.21027049  0.96871808     0.10710
C1144       C  0.07912379  0.22368485  0.98885788    -0.06420
C1145       C  0.09338666  0.23429944  0.01022198    -0.17650
C1146       C  0.12075450  0.23019128  0.01267210     0.10740
S1147       S  0.07676774  0.19775431  0.93948530    -0.32620
S1148       S  0.13689245  0.24229109  0.04210871    -0.32620
H1149       H  0.15543320  0.22169159  0.04417407     0.28750
H1150       H  0.05811716  0.21830741  0.93797890     0.28740
H1151       H  0.13028398  0.19565777  0.95560827     0.19330
H1152       H  0.08292526  0.24441330  0.02587754     0.19340
C1153       C  0.22980686  0.24139593  0.99224906    -0.06490
C1154       C  0.23423292  0.25699816  0.01472308    -0.17620
C1155       C  0.25442124  0.27590285  0.01530531     0.10710
C1156       C  0.27020932  0.27980188  0.99269021    -0.06420
C1157       C  0.26576043  0.26420876  0.97019797    -0.17650
C1158       C  0.24560436  0.24526449  0.96963334     0.10740
S1159       S  0.25958675  0.29375431  0.04573153    -0.32620
S1160       S  0.24062856  0.22718187  0.93930348    -0.32620
H1161       H  0.21320577  0.22373766  0.94211251     0.28750
H1162       H  0.28707562  0.29672441  0.04298374     0.28740
H1163       H  0.22227590  0.25394788  0.03217504     0.19330
H1164       H  0.27773272  0.26723221  0.95275082     0.19340
C1165       C  0.29009701  0.00939391  0.41099812    -0.06490
C1166       C  0.30149317  0.03145423  0.39874689    -0.17620
C1167       C  0.30412386  0.03272364  0.37130511     0.10710
C1168       C  0.29607649  0.01104805  0.35566155    -0.06420
C1169       C  0.28442550  0.98905938  0.36783134    -0.17650
C1170       C  0.28119434  0.98806981  0.39530412     0.10740
S1171       S  0.31833092  0.06232609  0.35744785    -0.32620
S1172       S  0.26848987  0.95794085  0.40933408    -0.32620
H1173       H  0.25120358  0.97039247  0.42698509     0.28750
H1174       H  0.30502370  0.06082696  0.33303296     0.28740
H1175       H  0.30850829  0.04781081  0.41066789     0.19330
H1176       H  0.27873332  0.97216715  0.35595598     0.19340
C1177       C  0.91933438  0.29892194  0.49178694    -0.06490
C1178       C  0.90820809  0.31159263  0.51367886    -0.17620
C1179       C  0.88083112  0.31366486  0.51646595     0.10710
C1180       C  0.86401654  0.30382886  0.49638602    -0.06420
C1181       C  0.87508361  0.29003198  0.47506644    -0.17650
C1182       C  0.90256544  0.28745848  0.47254020     0.10740
S1183       S  0.86851701  0.32904318  0.54611326    -0.32620
S1184       S  0.91480702  0.27071822  0.44361129    -0.32620
H1185       H  0.93891620  0.28428471  0.44199185     0.28750
H1186       H  0.84422694  0.31550125  0.54636937     0.28740
H1187       H  0.92098529  0.31977184  0.52885570     0.19330
H1188       H  0.86232392  0.28250505  0.45955432     0.19340
C1189       C  0.99679126  0.29550072  0.41052883    -0.06490
C1190       C  0.97490715  0.30769434  0.39863811    -0.17620
C1191       C  0.97344017  0.31096753  0.37122764     0.10710
C1192       C  0.99491428  0.30310175  0.35541300    -0.06420
C1193       C  0.01615295  0.28951022  0.36708431    -0.17650
C1194       C  0.01728936  0.28562195  0.39449485     0.10740
S1195       S  0.94374857  0.32431777  0.35652162    -0.32620
S1196       S  0.04617340  0.26978392  0.40800608    -0.32620
H1197       H  0.04788989  0.28674011  0.42987176     0.28750
H1198       H  0.92971658  0.32813166  0.38013529     0.28740
H1199       H  0.95904339  0.31491950  0.41096482     0.19330
H1200       H  0.03255642  0.28312838  0.35496031     0.19340
C1201       C  0.28672075  0.08895143  0.49055366    -0.06490
C1202       C  0.29646036  0.10098479  0.51351660    -0.17620
C1203       C  0.29847934  0.12841077  0.51541409     0.10710
C1204       C  0.29176041  0.14427345  0.49342626    -0.06420
C1205       C  0.28075523  0.13238187  0.47089002    -0.17650
C1206       C  0.27806349  0.10484275  0.46921431     0.10740
S1207       S  0.30969086  0.14191602  0.54645739    -0.32620
S1208       S  0.26468663  0.09150320  0.43890214    -0.32620
H1209       H  0.27541545  0.06607233  0.44102770     0.28750
H1210       H  0.29720841  0.16658530  0.54362626     0.28740
H1211       H  0.30254158  0.08886896  0.53014548     0.19330
H1212       H  0.27544046  0.14451214  0.45403619     0.19340
C1213       C  0.36327084  0.21177732  0.49496058    -0.06490
C1214       C  0.37354384  0.23190510  0.47878886    -0.17620
C1215       C  0.40083809  0.23671409  0.47757276     0.10710
C1216       C  0.41850792  0.21975537  0.49108011    -0.06420
C1217       C  0.40815099  0.19974932  0.50711073    -0.17650
C1218       C  0.38103478  0.19684413  0.51064100     0.10740
S1219       S  0.41187896  0.26350102  0.45714440    -0.32620
S1220       S  0.37069903  0.17512427  0.53686743    -0.32620
H1221       H  0.34797738  0.18983620  0.54314180     0.28750
H1222       H  0.42536800  0.27620187  0.47790113     0.28740
H1223       H  0.36031945  0.24378187  0.46679468     0.19330
H1224       H  0.42131264  0.18662123  0.51767903     0.19340
C1225       C  0.13323625  0.30426462  0.49284702    -0.06490
C1226       C  0.11811348  0.31280639  0.51430450    -0.17620
C1227       C  0.09082040  0.30911173  0.51473323     0.10710
C1228       C  0.07800501  0.29706512  0.49308702    -0.06420
C1229       C  0.09325987  0.28687976  0.47239737    -0.17650
C1230       C  0.12069695  0.29076081  0.47178931     0.10740
S1231       S  0.07354766  0.31966175  0.54376759    -0.32620
S1232       S  0.13815332  0.27962981  0.44288236    -0.32620
H1233       H  0.15611215  0.30081913  0.44204030     0.28750
H1234       H  0.05494030  0.29905347  0.54305416     0.28740
H1235       H  0.12766482  0.32270005  0.53076256     0.19330
H1236       H  0.08371530  0.27700314  0.45602889     0.19340
C1237       C  0.20027726  0.37538491  0.49088977    -0.06490
C1238       C  0.18598812  0.39033409  0.47233530    -0.17620
C1239       C  0.18806651  0.41774261  0.47139154     0.10710
C1240       C  0.20497426  0.43101993  0.48919090    -0.06420
C1241       C  0.22055122  0.41613971  0.50676045    -0.17650
C1242       C  0.21799016  0.38853400  0.50821105     0.10740
S1243       S  0.16943585  0.43466635  0.44625042    -0.32620
S1244       S  0.23637083  0.37173060  0.53376796    -0.32620
H1245       H  0.21645006  0.35328841  0.53963752     0.28750
H1246       H  0.19073995  0.45138870  0.44023843     0.28740
H1247       H  0.17286877  0.38052991  0.45847463     0.19330
H1248       H  0.23370651  0.42615631  0.52039877     0.19340
C1249       C  0.22903219  0.27993073  0.49090409    -0.06490
C1250       C  0.22995027  0.26205812  0.51210397    -0.17620
C1251       C  0.24943594  0.24253448  0.51364528     0.10710
C1252       C  0.26829585  0.24039587  0.49328498    -0.06420
C1253       C  0.26756598  0.25839415  0.47218438    -0.17650
C1254       C  0.24798919  0.27789272  0.47059354     0.10740
S1255       S  0.24957954  0.22148734  0.54243217    -0.32620
S1256       S  0.24756950  0.29865562  0.44161709    -0.32620
H1257       H  0.21994167  0.30158726  0.44043742     0.28750
H1258       H  0.27714123  0.21796788  0.54347251     0.28740
H1259       H  0.21561058  0.26365496  0.52786886     0.19330
H1260       H  0.28187336  0.25669213  0.45640249     0.19340
C1261       C  0.57930413  0.30045889  0.98868811    -0.06490
C1262       C  0.59167872  0.30901417  0.96554582    -0.17620
C1263       C  0.61919379  0.31064133  0.96404420     0.10710
C1264       C  0.63476010  0.30458617  0.98650383    -0.06420
C1265       C  0.62245526  0.29492115  0.00932378    -0.17650
C1266       C  0.59486631  0.29283775  0.01066041     0.10740
S1267       S  0.63324472  0.32044039  0.93287653    -0.32620
S1268       S  0.58064743  0.28189875  0.04137135    -0.32620
H1269       H  0.55870966  0.29890401  0.04032626     0.28750
H1270       H  0.65771483  0.30775087  0.93657689     0.28740
H1271       H  0.57980946  0.31428277  0.94845512     0.19330
H1272       H  0.63428797  0.29033769  0.02662903     0.19340
C1273       C  0.42082763  0.29808680  0.99102494    -0.06490
C1274       C  0.40785448  0.29964767  0.96653332    -0.17620
C1275       C  0.38037331  0.30269679  0.96494583     0.10710
C1276       C  0.36562339  0.30458065  0.98850171    -0.06420
C1277       C  0.37851048  0.30200330  0.01294381    -0.17650
C1278       C  0.40585530  0.29832876  0.01447652     0.10740
S1279       S  0.36590237  0.30482374  0.93229166    -0.32620
S1280       S  0.42020217  0.29462882  0.04694497    -0.32620
H1281       H  0.44288674  0.28079143  0.03909824     0.28750
H1282       H  0.33921297  0.30710242  0.93924881     0.28740
H1283       H  0.41932997  0.29917685  0.94850081     0.19330
H1284       H  0.36717665  0.30335519  0.03102068     0.19340
C1285       C  0.63445739  0.00669352  0.28729289    -0.06490
C1286       C  0.62266870  0.02485694  0.26980853    -0.17620
C1287       C  0.59507583  0.02603493  0.26673382     0.10710
C1288       C  0.57889835  0.00874244  0.28147589    -0.06420
C1289       C  0.59082460  0.99047291  0.29857865    -0.17650
C1290       C  0.61821348  0.98844821  0.30075665     0.10740
S1291       S  0.58168762  0.05141456  0.24555471    -0.32620
S1292       S  0.63113779  0.96170131  0.32062919    -0.32620
H1293       H  0.65476792  0.95879113  0.30637693     0.28750
H1294       H  0.55987419  0.05720938  0.26166518     0.28740
H1295       H  0.63490603  0.03906458  0.25951571     0.19330
H1296       H  0.57876811  0.97745075  0.31034387     0.19340
C1297       C  0.41993461  0.00902491  0.28031740    -0.06490
C1298       C  0.40832645  0.98626370  0.29101531    -0.17620
C1299       C  0.38090896  0.98428122  0.29391576     0.10710
C1300       C  0.36463818  0.00565807  0.28624829    -0.06420
C1301       C  0.37613288  0.02802420  0.27470687    -0.17650
C1302       C  0.40357456  0.03010928  0.27210786     0.10740
S1303       S  0.36790020  0.95417562  0.30784489    -0.32620
S1304       S  0.41645092  0.06108702  0.26062621    -0.32620
H1305       H  0.43796294  0.06145856  0.27834825     0.28750
H1306       H  0.34309616  0.95558038  0.29524965     0.28740
H1307       H  0.42076010  0.96998568  0.29736497     0.19330
H1308       H  0.36376948  0.04467890  0.26928211     0.19340
C1309       C  0.49998848  0.30328495  0.06939819    -0.06490
C1310       C  0.51463470  0.28526148  0.08471055    -0.17620
C1311       C  0.51701674  0.28826319  0.11221459     0.10710
C1312       C  0.50286243  0.30868239  0.12507723    -0.06420
C1313       C  0.48708775  0.32563090  0.10963040    -0.17650
C1314       C  0.48612941  0.32381963  0.08223219     0.10740
S1315       S  0.54008884  0.26684699  0.12900174    -0.32620
S1316       S  0.46719927  0.34907544  0.06538232    -0.32620
H1317       H  0.45898099  0.33359053  0.04398034     0.28750
H1318       H  0.54898419  0.28613611  0.14695338     0.28740
H1319       H  0.52570062  0.26975028  0.07499585     0.19330
H1320       H  0.47549734  0.34095274  0.11897765     0.19340
C1321       C  0.49747110  0.37535831  0.19602581    -0.06490
C1322       C  0.51451067  0.38697355  0.21467041    -0.17620
C1323       C  0.51514612  0.41447494  0.21813536     0.10710
C1324       C  0.49835661  0.43067190  0.20267485    -0.06420
C1325       C  0.48037763  0.41889975  0.18516700    -0.17650
C1326       C  0.47927484  0.39154286  0.18216180     0.10740
S1327       S  0.53903441  0.42771585  0.24108445    -0.32620
S1328       S  0.45395977  0.37858948  0.16048806    -0.32620
H1329       H  0.45133092  0.35420012  0.17355971     0.28750
H1330       H  0.54560211  0.44972407  0.22550595     0.28740
H1331       H  0.52840365  0.37472873  0.22549249     0.19330
H1332       H  0.46689825  0.43116889  0.17382757     0.19340
C1333       C  0.50372073  0.08939527  0.28023281    -0.06490
C1334       C  0.52014923  0.09943993  0.30021772    -0.17620
C1335       C  0.52387149  0.12650815  0.30357056     0.10710
C1336       C  0.50887564  0.14459989  0.28832844    -0.06420
C1337       C  0.49349781  0.13463862  0.26733818    -0.17650
C1338       C  0.49144389  0.10739311  0.26250905     0.10740
S1339       S  0.54967137  0.13628923  0.32614502    -0.32620
S1340       S  0.47306952  0.09793195  0.23335208    -0.32620
H1341       H  0.46600245  0.07247001  0.24100773     0.28750
H1342       H  0.55668078  0.15902718  0.31178286     0.28740
H1343       H  0.53108337  0.08595106  0.31283549     0.19330
H1344       H  0.48245092  0.14811388  0.25485432     0.19340
C1345       C  0.50612516  0.21654591  0.35597480    -0.06490
C1346       C  0.48495945  0.23099063  0.36646257    -0.17620
C1347       C  0.48326002  0.23577920  0.39368410     0.10710
C1348       C  0.50232504  0.22472639  0.41092745    -0.06420
C1349       C  0.52414824  0.21157913  0.40024155    -0.17650
C1350       C  0.52675204  0.20831742  0.37301049     0.10740
S1351       S  0.45541772  0.25433765  0.40530222    -0.32620
S1352       S  0.55725922  0.19433834  0.36129750    -0.32620
H1353       H  0.55664695  0.20675843  0.33643440     0.28750
H1354       H  0.47078461  0.27156590  0.42081148     0.28740
H1355       H  0.46934951  0.23795878  0.35348870     0.19330
H1356       H  0.53942885  0.20395340  0.41325938     0.19340
C1357       C  0.50515334  0.23982870  0.25985147    -0.06490
C1358       C  0.48514897  0.23853128  0.24054224    -0.17620
C1359       C  0.48254716  0.25816516  0.22116353     0.10710
C1360       C  0.50070023  0.27941781  0.22065484    -0.06420
C1361       C  0.52080459  0.28052377  0.23983843    -0.17650
C1362       C  0.52341849  0.26094143  0.25914165     0.10740
S1363       S  0.45496864  0.25553685  0.19859094    -0.32620
S1364       S  0.55109744  0.26360001  0.28161057    -0.32620
H1365       H  0.55497777  0.23624101  0.28462829     0.28750
H1366       H  0.45119199  0.28289291  0.19546652     0.28740
H1367       H  0.47091450  0.22253640  0.24109886     0.19330
H1368       H  0.53506158  0.29650446  0.23936187     0.19340
C1369       C  0.36547779  0.80488635  0.48839969    -0.06490
C1370       C  0.38015832  0.81392887  0.46675787    -0.17620
C1371       C  0.40758786  0.81119831  0.46609067     0.10710
C1372       C  0.42085554  0.79931819  0.48758310    -0.06420
C1373       C  0.40618028  0.78898538  0.50863705    -0.17650
C1374       C  0.37865108  0.79203768  0.50950177     0.10740
S1375       S  0.42462662  0.82323098  0.43728632    -0.32620
S1376       S  0.36185779  0.78083883  0.53879647    -0.32620
H1377       H  0.34336698  0.80156005  0.53960773     0.28750
H1378       H  0.44379498  0.80312942  0.43731711     0.28740
H1379       H  0.37016497  0.82365559  0.45044997     0.19330
H1380       H  0.41635804  0.77988957  0.52518951     0.19340
C1381       C  0.29769900  0.87507071  0.49192059    -0.06490
C1382       C  0.31186616  0.89017545  0.51047629    -0.17620
C1383       C  0.30958462  0.91762599  0.51142241     0.10710
C1384       C  0.29222918  0.93059515  0.49373328    -0.06420
C1385       C  0.27690702  0.91550821  0.47614096    -0.17650
C1386       C  0.27995679  0.88802660  0.47453172     0.10740
S1387       S  0.32957389  0.93467088  0.53565669    -0.32620
S1388       S  0.26238664  0.87119462  0.44846275    -0.32620
H1389       H  0.28308899  0.85370490  0.44240988     0.28750
H1390       H  0.31209639  0.95573199  0.53981659     0.28740
H1391       H  0.32527611  0.88047611  0.52414429     0.19330
H1392       H  0.26367463  0.92536111  0.46242742     0.19340
C1393       C  0.13404545  0.71484488  0.48894260    -0.06490
C1394       C  0.12172229  0.72884374  0.50937158    -0.17620
C1395       C  0.09417017  0.73133141  0.51014963     0.10710
C1396       C  0.07865580  0.71989788  0.48988593    -0.06420
C1397       C  0.09106431  0.70679185  0.46898499    -0.17650
C1398       C  0.11854479  0.70458619  0.46802562     0.10740
S1399       S  0.07992437  0.74740512  0.53849002    -0.32620
S1400       S  0.13266051  0.68843812  0.43961592    -0.32620
H1401       H  0.15690411  0.70203493  0.44041411     0.28750
H1402       H  0.05835739  0.73002781  0.54069670     0.28740
H1403       H  0.13349329  0.73651292  0.52557773     0.19330
H1404       H  0.07925036  0.69835624  0.45319373     0.19340
C1405       C  0.20225172  0.64533456  0.49383251    -0.06490
C1406       C  0.19843105  0.63240782  0.46961804    -0.17620
C1407       C  0.19911931  0.60485435  0.46781442     0.10710
C1408       C  0.20471399  0.58977191  0.49067885    -0.06420
C1409       C  0.20918574  0.60269078  0.51479190    -0.17650
C1410       C  0.20770444  0.63025839  0.51670907     0.10740
S1411       S  0.19248048  0.59068955  0.43572656    -0.32620
S1412       S  0.21061545  0.64459194  0.54919388    -0.32620
H1413       H  0.22136122  0.66875563  0.54110526     0.28750
H1414       H  0.18364945  0.56584478  0.44406148     0.28740
H1415       H  0.19363593  0.64390402  0.45215998     0.19330
H1416       H  0.21301117  0.59113640  0.53244240     0.19340
C1417       C  0.22951595  0.74081848  0.49429586    -0.06490
C1418       C  0.23076728  0.75809675  0.47263211    -0.17620
C1419       C  0.25069420  0.77717979  0.47074122     0.10710
C1420       C  0.26964351  0.77952670  0.49121190    -0.06420
C1421       C  0.26841537  0.76227801  0.51288423    -0.17650
C1422       C  0.24843673  0.74322634  0.51480796     0.10740
S1423       S  0.25138243  0.79720337  0.44126777    -0.32620
S1424       S  0.24757542  0.72339845  0.54439679    -0.32620
H1425       H  0.21989585  0.72095440  0.54519948     0.28750
H1426       H  0.27901135  0.80008334  0.44043747     0.28740
H1427       H  0.21649441  0.75623221  0.45671086     0.19330
H1428       H  0.28275767  0.76412813  0.52874569     0.19340
C1429       C  0.99895511  0.72587045  0.41095082    -0.06490
C1430       C  0.97531837  0.71897465  0.39817073    -0.17620
C1431       C  0.97448106  0.71471707  0.37091139     0.10710
C1432       C  0.99797302  0.71670097  0.35609181    -0.06420
C1433       C  0.02146888  0.72446187  0.36868789    -0.17650
C1434       C  0.02221028  0.72916118  0.39596225     0.10740
S1435       S  0.94303425  0.70592138  0.35643666    -0.32620
S1436       S  0.05386195  0.73666480  0.41069020    -0.32620
H1437       H  0.04415375  0.75240296  0.43127693     0.28750
H1438       H  0.94816888  0.71602241  0.33111009     0.28740
H1439       H  0.95748880  0.71621594  0.40966025     0.19330
H1440       H  0.03954579  0.72587712  0.35736031     0.19340
C1441       C  0.99325690  0.64468827  0.28862688    -0.06490
C1442       C  0.00797255  0.63420833  0.26753666    -0.17620
C1443       C  0.00852928  0.60698747  0.26227990     0.10710
C1444       C  0.99516378  0.58942295  0.27944616    -0.06420
C1445       C  0.97937433  0.60002491  0.29955537    -0.17650
C1446       C  0.97733681  0.62723231  0.30354686     0.10740
S1447       S  0.02662523  0.59674061  0.23339986    -0.32620
S1448       S  0.95272558  0.63817355  0.32677760    -0.32620
H1449       H  0.94668550  0.66159617  0.31303038     0.28750
H1450       H  0.03503284  0.57214054  0.24271695     0.28740
H1451       H  0.01978836  0.64720832  0.25536522     0.19330
H1452       H  0.96785092  0.58691973  0.31194334     0.19340
C1453       C  0.99886897  0.80992549  0.12583250    -0.06490
C1454       C  0.01206644  0.82922877  0.11091498    -0.17620
C1455       C  0.01194362  0.82876213  0.08344776     0.10710
C1456       C  0.00163475  0.80655409  0.06992400    -0.06420
C1457       C  0.99016704  0.78611077  0.08474861    -0.17650
C1458       C  0.98744741  0.78816835  0.11226977     0.10740
S1459       S  0.02393687  0.85803335  0.06725563    -0.32620
S1460       S  0.96688152  0.76388499  0.12806116    -0.32620
H1461       H  0.95396959  0.78242575  0.14416597     0.28750
H1462       H  0.99858082  0.86517719  0.05816899     0.28740
H1463       H  0.02145310  0.84582988  0.12066413     0.19330
H1464       H  0.98144673  0.76935302  0.07463969     0.19340
C1465       C  0.98928455  0.87515026  0.19836644    -0.06490
C1466       C  0.01035416  0.88618600  0.21280794    -0.17620
C1467       C  0.01310776  0.91364162  0.21530024     0.10710
C1468       C  0.99423389  0.93044894  0.20334458    -0.06420
C1469       C  0.97245819  0.91936540  0.19018434    -0.17650
C1470       C  0.96951575  0.89201353  0.18800311     0.10740
S1471       S  0.04214721  0.92592078  0.23205827    -0.32620
S1472       S  0.94019558  0.87985405  0.17158635    -0.32620
H1473       H  0.93972182  0.85528276  0.18458719     0.28750
H1474       H  0.04599012  0.94774743  0.21533089     0.28740
H1475       H  0.02571599  0.87343591  0.22064761     0.19330
H1476       H  0.95758853  0.93216931  0.18150132     0.19340
C1477       C  0.99810067  0.77915843  0.22080196    -0.06490
C1478       C  0.01849998  0.77919708  0.23966432    -0.17620
C1479       C  0.02013478  0.75951570  0.25904290     0.10710
C1480       C  0.00050568  0.73960316  0.26011139    -0.06420
C1481       C  0.98031616  0.73944955  0.24099861    -0.17650
C1482       C  0.97875707  0.75903906  0.22159629     0.10740
S1483       S  0.04819764  0.76051918  0.28115701    -0.32620
S1484       S  0.95080811  0.75790703  0.19938854    -0.32620
H1485       H  0.94790957  0.78542891  0.19689463     0.28750
H1486       H  0.05023165  0.73298118  0.28433121     0.28740
H1487       H  0.03349766  0.79447644  0.23901755     0.19330
H1488       H  0.96501370  0.72448520  0.24179465     0.19340
C1489       C  0.29675897  0.64452632  0.98648046    -0.06490
C1490       C  0.28163677  0.63241313  0.00624584    -0.17620
C1491       C  0.27800782  0.60495969  0.00663682     0.10710
C1492       C  0.29016804  0.58915070  0.98717237    -0.06420
C1493       C  0.30456794  0.60135697  0.96697924    -0.17650
C1494       C  0.30750452  0.62880171  0.96608105     0.10740
S1495       S  0.26015005  0.59096299  0.03393385    -0.32620
S1496       S  0.32533119  0.64251181  0.93847408    -0.32620
H1497       H  0.31216919  0.66699446  0.93834245     0.28750
H1498       H  0.24170329  0.57797543  0.01763900     0.28740
H1499       H  0.27352017  0.64428716  0.02206179     0.19330
H1500       H  0.31363600  0.58937247  0.95176536     0.19340
C1501       C  0.13607399  0.80791174  0.98891688    -0.06490
C1502       C  0.12162014  0.82089504  0.00856781    -0.17620
C1503       C  0.09424652  0.81862785  0.01003150     0.10710
C1504       C  0.08044323  0.80305791  0.99144310    -0.06420
C1505       C  0.09489717  0.78871155  0.97263940    -0.17650
C1506       C  0.12252614  0.79126503  0.97091088     0.10740
S1507       S  0.07826946  0.83568635  0.03660548    -0.32620
S1508       S  0.13890156  0.77417149  0.94439655    -0.32620
H1509       H  0.15784651  0.79391693  0.93965194     0.28750
H1510       H  0.05939636  0.81577717  0.04099477     0.28740
H1511       H  0.13181570  0.83320036  0.02287456     0.19330
H1512       H  0.08449852  0.77658764  0.95834441     0.19340
C1513       C  0.20588957  0.87631429  0.98615340    -0.06490
C1514       C  0.19501725  0.89143415  0.96552311    -0.17620
C1515       C  0.19773005  0.91887486  0.96487663     0.10710
C1516       C  0.21187268  0.93183072  0.98518589    -0.06420
C1517       C  0.22406334  0.91672648  0.00506741    -0.17650
C1518       C  0.22073077  0.88920662  0.00612420     0.10740
S1519       S  0.18254050  0.93622382  0.93761767    -0.32620
S1520       S  0.23395470  0.87218377  0.03456311    -0.32620
H1521       H  0.21269386  0.85448716  0.03721571     0.28750
H1522       H  0.20156387  0.95638065  0.93657477     0.28740
H1523       H  0.18379997  0.88177477  0.95000069     0.19330
H1524       H  0.23474784  0.92658439  0.02082826     0.19340
C1525       C  0.23190077  0.78029771  0.99099410    -0.06490
C1526       C  0.25194861  0.78051086  0.97189985    -0.17620
C1527       C  0.27128513  0.76074957  0.97112841     0.10710
C1528       C  0.27106111  0.74029895  0.99019406    -0.06420
C1529       C  0.25106730  0.74006042  0.00931978    -0.17650
C1530       C  0.23179543  0.75992204  0.01018417     0.10740
S1531       S  0.29492917  0.76223971  0.94459810    -0.32620
S1532       S  0.20853607  0.75872978  0.03705337    -0.32620
H1533       H  0.20606686  0.78628145  0.03972151     0.28750
H1534       H  0.29745282  0.73473154  0.94157876     0.28740
H1535       H  0.25210266  0.79582917  0.95693216     0.19330
H1536       H  0.25093049  0.72465897  0.02420515     0.19340
C1537       C  0.42151101  0.72116035  0.98822066    -0.06490
C1538       C  0.40717700  0.73168854  0.00941901    -0.17620
C1539       C  0.37984778  0.72743103  0.01154245     0.10710
C1540       C  0.36648063  0.71303899  0.99160323    -0.06420
C1541       C  0.38077331  0.70359978  0.96990237    -0.17650
C1542       C  0.40795725  0.70753976  0.96800594     0.10740
S1543       S  0.36366358  0.73924614  0.04090193    -0.32620
S1544       S  0.42424763  0.69496400  0.93913028    -0.32620
H1545       H  0.44222708  0.71609336  0.93752306     0.28750
H1546       H  0.34529256  0.71847368  0.04261838     0.28740
H1547       H  0.41754631  0.74191514  0.02515348     0.19330
H1548       H  0.37063244  0.69290719  0.95431612     0.19340
C1549       C  0.49878078  0.80599830  0.35520795    -0.06490
C1550       C  0.51472861  0.82314157  0.37014795    -0.17620
C1551       C  0.51581230  0.82160801  0.39755378     0.10710
C1552       C  0.50158865  0.80162226  0.41083423    -0.06420
C1553       C  0.48705881  0.78320296  0.39589892    -0.17650
C1554       C  0.48515484  0.78539121  0.36821682     0.10740
S1555       S  0.53583071  0.84583854  0.41434640    -0.32620
S1556       S  0.46368259  0.76319884  0.35023805    -0.32620
H1557       H  0.45782392  0.74634489  0.37153020     0.28750
H1558       H  0.51365215  0.86115934  0.42114114     0.28740
H1559       H  0.52585935  0.83859544  0.36037195     0.19330
H1560       H  0.47607525  0.76795510  0.40607592     0.19340
C1561       C  0.49510690  0.87505049  0.28696660    -0.06490
C1562       C  0.51262327  0.88978507  0.30269034    -0.17620
C1563       C  0.51482548  0.91701626  0.30003703     0.10710
C1564       C  0.49929405  0.93047066  0.28110052    -0.06420
C1565       C  0.48276603  0.91575418  0.26423775    -0.17650
C1566       C  0.48021741  0.88822955  0.26718537     0.10740
S1567       S  0.53884027  0.93331162  0.32064209    -0.32620
S1568       S  0.45659361  0.87159276  0.24625010    -0.32620
H1569       H  0.44893724  0.85275769  0.26515292     0.28750
H1570       H  0.54717946  0.94935411  0.29967338     0.28740
H1571       H  0.52491193  0.87990946  0.31726331     0.19330
H1572       H  0.47076251  0.92588688  0.24962979     0.19340
C1573       C  0.49668975  0.71422501  0.12523859    -0.06490
C1574       C  0.47812834  0.70059924  0.10966301    -0.17620
C1575       C  0.47760512  0.70332578  0.08224446     0.10710
C1576       C  0.49587342  0.72031292  0.06982139    -0.06420
C1577       C  0.51325872  0.73533186  0.08536736    -0.17650
C1578       C  0.51430894  0.73205592  0.11283346     0.10740
S1579       S  0.45309826  0.68458809  0.06426821    -0.32620
S1580       S  0.54011935  0.74939884  0.13034817    -0.32620
H1581       H  0.54674847  0.72811418  0.14699418     0.28750
H1582       H  0.44873939  0.70401913  0.04489402     0.28740
H1583       H  0.46420179  0.68725453  0.11892860     0.19330
H1584       H  0.52735670  0.74834695  0.07589942     0.19340
C1585       C  0.50740801  0.64460780  0.19389181    -0.06490
C1586       C  0.49410762  0.63446325  0.21604266    -0.17620
C1587       C  0.49201816  0.60715759  0.22042423     0.10710
C1588       C  0.50202617  0.58940401  0.20126740    -0.06420
C1589       C  0.51601687  0.59970538  0.17972395    -0.17650
C1590       C  0.52036847  0.62670046  0.17688385     0.10740
S1591       S  0.47596683  0.59702854  0.25051855    -0.32620
S1592       S  0.54397646  0.63667794  0.15213187    -0.32620
H1593       H  0.55173731  0.66000590  0.16514727     0.28750
H1594       H  0.46498178  0.57362394  0.24089268     0.28740
H1595       H  0.48446784  0.64780497  0.22965875     0.19330
H1596       H  0.52457531  0.58649925  0.16529845     0.19340
C1597       C  0.50108596  0.73994555  0.22086443    -0.06490
C1598       C  0.52320364  0.74332520  0.23738076    -0.17620
C1599       C  0.52384811  0.76331062  0.25647830     0.10710
C1600       C  0.50176155  0.78012396  0.25934504    -0.06420
C1601       C  0.47970028  0.77672436  0.24284501    -0.17650
C1602       C  0.47893239  0.75663724  0.22398489     0.10740
S1603       S  0.55358902  0.76675620  0.27597473    -0.32620
S1604       S  0.44865655  0.75264419  0.20541852    -0.32620
H1605       H  0.45034619  0.72499423  0.20319781     0.28750
H1606       H  0.55137227  0.79415215  0.27999093     0.28740
H1607       H  0.54031061  0.73067378  0.23496806     0.19330
H1608       H  0.46254548  0.78931503  0.24530013     0.19340
C1609       C  0.29794108  0.50837429  0.85529284    -0.06490
C1610       C  0.31130815  0.48913919  0.87028603    -0.17620
C1611       C  0.30876702  0.48772237  0.89769607     0.10710
C1612       C  0.29184245  0.50559328  0.91082848    -0.06420
C1613       C  0.27728666  0.52392712  0.89582073    -0.17650
C1614       C  0.28063445  0.52598344  0.86836995     0.10740
S1615       S  0.32810585  0.46275336  0.91444593    -0.32620
S1616       S  0.26402819  0.55285505  0.85178593    -0.32620
H1617       H  0.28474207  0.55837796  0.83419353     0.28750
H1618       H  0.31101462  0.45909890  0.93582506     0.28740
H1619       H  0.32432146  0.47523917  0.86053454     0.19330
H1620       H  0.26455638  0.53794230  0.90576703     0.19340
C1621       C  0.36561076  0.50679395  0.78472798    -0.06490
C1622       C  0.37781997  0.52801991  0.77182067    -0.17620
C1623       C  0.40536316  0.52900722  0.76880346     0.10710
C1624       C  0.42110916  0.50817652  0.77911369    -0.06420
C1625       C  0.40870635  0.48652281  0.79109233    -0.17650
C1626       C  0.38122717  0.48535717  0.79352113     0.10740
S1627       S  0.41848004  0.55820975  0.75297037    -0.32620
S1628       S  0.36723551  0.45600692  0.80811552    -0.32620
H1629       H  0.34286071  0.45745442  0.79469547     0.28750
H1630       H  0.44529325  0.55484010  0.75874434     0.28740
H1631       H  0.36589605  0.54452982  0.76511615     0.19330
H1632       H  0.42056875  0.47029048  0.79856279     0.19340
C1633       C  0.13363563  0.50536268  0.69727076    -0.06490
C1634       C  0.12181917  0.52694992  0.70993911    -0.17620
C1635       C  0.09431887  0.52845681  0.71270876     0.10710
C1636       C  0.07827270  0.50771630  0.70312273    -0.06420
C1637       C  0.09019370  0.48565521  0.69142229    -0.17650
C1638       C  0.11765367  0.48411535  0.68868530     0.10740
S1639       S  0.08087110  0.55817873  0.72673951    -0.32620
S1640       S  0.13113942  0.45472440  0.67376423    -0.32620
H1641       H  0.15590602  0.45608910  0.68645173     0.28750
H1642       H  0.05842853  0.55911085  0.71026405     0.28740
H1643       H  0.13394389  0.54346548  0.71622283     0.19330
H1644       H  0.07798785  0.46955241  0.68425781     0.19340
C1645       C  0.20380502  0.51167603  0.57035803    -0.06490
C1646       C  0.18981781  0.53225422  0.58244314    -0.17620
C1647       C  0.18807443  0.53401224  0.60995252     0.10710
C1648       C  0.19989135  0.51430215  0.62592719    -0.06420
C1649       C  0.21458626  0.49414665  0.61386595    -0.17650
C1650       C  0.21649254  0.49252365  0.58628734     0.10740
S1651       S  0.17065227  0.56198199  0.62347934    -0.32620
S1652       S  0.23364902  0.46454248  0.57257461    -0.32620
H1653       H  0.21617083  0.46111687  0.55116554     0.28750
H1654       H  0.18496995  0.56295169  0.64735251     0.28740
H1655       H  0.18040635  0.54725285  0.57033446     0.19330
H1656       H  0.22340320  0.47877401  0.62593693     0.19340
C1657       C  0.22990809  0.50993970  0.72051509    -0.06490
C1658       C  0.23925323  0.53412490  0.73034593    -0.17620
C1659       C  0.25909231  0.53505825  0.74976427     0.10710
C1660       C  0.26976749  0.51121587  0.75972458    -0.06420
C1661       C  0.26024127  0.48704010  0.75005658    -0.17650
C1662       C  0.24053481  0.48612577  0.73053556     0.10740
S1663       S  0.26916221  0.56725391  0.76143811    -0.32620
S1664       S  0.22940559  0.45397469  0.71980189    -0.32620
H1665       H  0.22171977  0.46129840  0.69413026     0.28750
H1666       H  0.29439130  0.56031048  0.77075762     0.28740
H1667       H  0.23092677  0.55241602  0.72289270     0.19330
H1668       H  0.26828707  0.46872828  0.75776372     0.19340
C1669       C  0.29678894  0.01504478  0.62498521    -0.06490
C1670       C  0.28046651  0.99551804  0.61377841    -0.17620
C1671       C  0.27658079  0.99395581  0.58633734     0.10710
C1672       C  0.28950153  0.01227258  0.56967014    -0.06420
C1673       C  0.30473812  0.03246081  0.58100506    -0.17650
C1674       C  0.30789932  0.03449223  0.60832459     0.10740
S1675       S  0.25596027  0.96744795  0.57420113    -0.32620
S1676       S  0.32571254  0.06283814  0.62060669    -0.32620
H1677       H  0.31205387  0.06440047  0.64469577     0.28750
H1678       H  0.26791312  0.96443100  0.54947857     0.28740
H1679       H  0.27162557  0.98066312  0.62638296     0.19330
H1680       H  0.31404779  0.04704820  0.56840018     0.19340
C1681       C  0.13675314  0.00692565  0.78367621    -0.06490
C1682       C  0.12427278  0.03112685  0.77849536    -0.17620
C1683       C  0.09688833  0.03252240  0.77445766     0.10710
C1684       C  0.08158242  0.00922548  0.77596699    -0.06420
C1685       C  0.09434243  0.98490690  0.77977183    -0.17650
C1686       C  0.12168238  0.98349181  0.78371461     0.10740
S1687       S  0.08277245  0.06474001  0.76888592    -0.32620
S1688       S  0.13589290  0.95141314  0.79015164    -0.32620
H1689       H  0.16113451  0.95703533  0.78019079     0.28750
H1690       H  0.06026586  0.05623883  0.75497666     0.28740
H1691       H  0.13584280  0.04915218  0.77845667     0.19330
H1692       H  0.08293675  0.96686646  0.78013405     0.19340
C1693       C  0.20382418  0.01024252  0.85550911    -0.06490
C1694       C  0.19248808  0.03120090  0.86956298    -0.17620
C1695       C  0.19515366  0.03307194  0.89693862     0.10710
C1696       C  0.21023432  0.01416486  0.91088287    -0.06420
C1697       C  0.22292715  0.99400936  0.89671686    -0.17650
C1698       C  0.21932073  0.99142684  0.86930959     0.10740
S1699       S  0.17945357  0.06047566  0.91297623    -0.32620
S1700       S  0.23338234  0.96276865  0.85357038    -0.32620
H1701       H  0.21279680  0.95921986  0.83513320     0.28750
H1702       H  0.16029825  0.04444085  0.92507430     0.28740
H1703       H  0.18086510  0.04592420  0.85915342     0.19330
H1704       H  0.23437739  0.97925905  0.90725704     0.19340
C1705       C  0.23263542  0.00733502  0.76070192    -0.06490
C1706       C  0.24919697  0.02947338  0.75877327    -0.17620
C1707       C  0.26807562  0.03141128  0.73874940     0.10710
C1708       C  0.27092711  0.01050997  0.72047912    -0.06420
C1709       C  0.25444284  0.98832041  0.72246028    -0.17650
C1710       C  0.23556911  0.98637944  0.74250102     0.10740
S1711       S  0.28726810  0.06141356  0.73703252    -0.32620
S1712       S  0.21640462  0.95637327  0.74429085    -0.32620
H1713       H  0.21361843  0.95645259  0.77192428     0.28750
H1714       H  0.29004939  0.06154002  0.70940334     0.28740
H1715       H  0.24683700  0.04572720  0.77248883     0.19330
H1716       H  0.25674293  0.97212266  0.70866838     0.19340
C1717       C  0.99899458  0.30304654  0.56929177    -0.06490
C1718       C  0.98814668  0.28273979  0.58480221    -0.17620
C1719       C  0.98671146  0.28490920  0.61253339     0.10710
C1720       C  0.99830530  0.30705078  0.62530770    -0.06420
C1721       C  0.01071976  0.32625668  0.60959990    -0.17650
C1722       C  0.00961617  0.32549879  0.58219488     0.10740
S1723       S  0.96799969  0.26049829  0.63054006    -0.32620
S1724       S  0.02103648  0.35475579  0.56542488    -0.32620
H1725       H  0.99559610  0.36107773  0.55595112     0.28750
H1726       H  0.96380201  0.24291415  0.60942424     0.28740
H1727       H  0.97944399  0.26581740  0.57502245     0.19330
H1728       H  0.02043370  0.34300557  0.61870097     0.19340
C1729       C  0.00003035  0.37414876  0.69600477    -0.06490
C1730       C  0.98246548  0.38582734  0.71391536    -0.17620
C1731       C  0.98198194  0.41331516  0.71749597     0.10710
C1732       C  0.99954313  0.42940562  0.70294094    -0.06420
C1733       C  0.01782869  0.41754891  0.68600656    -0.17650
C1734       C  0.01870066  0.39021880  0.68285059     0.10740
S1735       S  0.95743919  0.42661943  0.73949165    -0.32620
S1736       S  0.04440904  0.37714114  0.66198134    -0.32620
H1737       H  0.04694021  0.35291030  0.67538364     0.28750
H1738       H  0.95196048  0.44922087  0.72430300     0.28740
H1739       H  0.96819589  0.37362300  0.72415377     0.19330
H1740       H  0.03178199  0.42973028  0.67528152     0.19340
C1741       C  0.00456360  0.14325748  0.78441263    -0.06490
C1742       C  0.98253623  0.13153373  0.77217064    -0.17620
C1743       C  0.98102790  0.10401174  0.76905904     0.10710
C1744       C  0.00188430  0.08803848  0.77867131    -0.06420
C1745       C  0.02409537  0.09995929  0.79012001    -0.17650
C1746       C  0.02612307  0.12730451  0.79210491     0.10740
S1747       S  0.95139774  0.09056326  0.75436887    -0.32620
S1748       S  0.05696221  0.14056718  0.80418515    -0.32620
H1749       H  0.05483586  0.16516688  0.79142325     0.28750
H1750       H  0.95135047  0.06684755  0.76875693     0.28740
H1751       H  0.96597444  0.14374157  0.76613667     0.19330
H1752       H  0.04012350  0.08782132  0.79750004     0.19340
C1753       C  0.00104638  0.21911195  0.91110790    -0.06490
C1754       C  0.01572757  0.19784722  0.90125996    -0.17620
C1755       C  0.01972467  0.19444612  0.87430945     0.10710
C1756       C  0.00605291  0.21064503  0.85598969    -0.06420
C1757       C  0.99176279  0.23239167  0.86574234    -0.17650
C1758       C  0.98986029  0.23737286  0.89296441     0.10740
S1759       S  0.04451990  0.17069621  0.86505386    -0.32620
S1760       S  0.97287341  0.26725169  0.90237501    -0.32620
H1761       H  0.96486373  0.25931014  0.92747059     0.28750
H1762       H  0.05326454  0.18537937  0.84315856     0.28740
H1763       H  0.02539540  0.18434556  0.91482186     0.19330
H1764       H  0.98155675  0.24543260  0.85214192     0.19340
C1765       C  0.00567786  0.23890398  0.76035419    -0.06490
C1766       C  0.98512600  0.23855663  0.74163616    -0.17620
C1767       C  0.98288190  0.25817303  0.72235988     0.10710
C1768       C  0.00200731  0.27848250  0.72114339    -0.06420
C1769       C  0.02255600  0.27894984  0.73988958    -0.17650
C1770       C  0.02475669  0.25931290  0.75928397     0.10740
S1771       S  0.95438063  0.25675616  0.70085625    -0.32620
S1772       S  0.05289337  0.26092830  0.78125116    -0.32620
H1773       H  0.05585993  0.23343624  0.78405640     0.28750
H1774       H  0.95121398  0.28425385  0.69839765     0.28740
H1775       H  0.97018122  0.22323560  0.74253701     0.19330
H1776       H  0.03733693  0.29442478  0.73903511     0.19340
C1777       C  0.42159486  0.01153253  0.70099977    -0.06490
C1778       C  0.40925385  0.03463146  0.69198676    -0.17620
C1779       C  0.38176818  0.03604326  0.68940420     0.10710
C1780       C  0.36623368  0.01355091  0.69500775    -0.06420
C1781       C  0.37847781  0.99072797  0.70495719    -0.17650
C1782       C  0.40600720  0.98944523  0.70787871     0.10740
S1783       S  0.36771610  0.06708984  0.67891745    -0.32620
S1784       S  0.42018209  0.95866454  0.71888797    -0.32620
H1785       H  0.44197187  0.95976326  0.70188764     0.28750
H1786       H  0.34314123  0.06364058  0.69131322     0.28740
H1787       H  0.42112696  0.05169321  0.68687615     0.19330
H1788       H  0.36665558  0.97338994  0.70919634     0.19340
C1789       C  0.49249458  0.30503513  0.85558311    -0.06490
C1790       C  0.51054665  0.28692589  0.86659620    -0.17620
C1791       C  0.51248923  0.28338474  0.89404046     0.10710
C1792       C  0.49586463  0.29807982  0.91088226    -0.06420
C1793       C  0.47688291  0.31500875  0.89973640    -0.17650
C1794       C  0.47465877  0.31826113  0.87244907     0.10740
S1795       S  0.53784240  0.26151076  0.90629912    -0.32620
S1796       S  0.44846170  0.33943143  0.86050881    -0.32620
H1797       H  0.44507091  0.32637025  0.83620564     0.28750
H1798       H  0.54559661  0.27792918  0.92736749     0.28740
H1799       H  0.52429935  0.27665050  0.85386334     0.19330
H1800       H  0.46356801  0.32586119  0.91247993     0.19340
C1801       C  0.50131834  0.37441484  0.78650170    -0.06490
C1802       C  0.52120996  0.38923717  0.79897496    -0.17620
C1803       C  0.52230549  0.41665516  0.79633393     0.10710
C1804       C  0.50375962  0.42982601  0.78009765    -0.06420
C1805       C  0.48482521  0.41494287  0.76626589    -0.17650
C1806       C  0.48296622  0.38749393  0.76981064     0.10740
S1807       S  0.54793839  0.43391206  0.81401074    -0.32620
S1808       S  0.45555428  0.37078872  0.75421325    -0.32620
H1809       H  0.45067439  0.35337088  0.77529722     0.28750
H1810       H  0.53034114  0.44304091  0.83341204     0.28740
H1811       H  0.53552016  0.37943275  0.81161546     0.19330
H1812       H  0.47031769  0.42494748  0.75402341     0.19340
C1813       C  0.50753219  0.14374178  0.69498743    -0.06490
C1814       C  0.48810768  0.13235560  0.71116927    -0.17620
C1815       C  0.48643924  0.10489141  0.71441890     0.10710
C1816       C  0.50463314  0.08837905  0.70126238    -0.06420
C1817       C  0.52478718  0.09981371  0.68619031    -0.17650
C1818       C  0.52683041  0.12720268  0.68343831     0.10740
S1819       S  0.45964741  0.09220122  0.73408067    -0.32620
S1820       S  0.55475506  0.13976900  0.66527306    -0.32620
H1821       H  0.55621793  0.16402297  0.67876454     0.28750
H1822       H  0.45505292  0.06961874  0.71861532     0.28740
H1823       H  0.47322006  0.14481195  0.72014043     0.19330
H1824       H  0.53922256  0.08725475  0.67661743     0.19340
C1825       C  0.49576554  0.21918917  0.56961612    -0.06490
C1826       C  0.51295052  0.23492943  0.58476381    -0.17620
C1827       C  0.51504254  0.23157036  0.61232551     0.10710
C1828       C  0.49918413  0.21237914  0.62501586    -0.06420
C1829       C  0.48128604  0.19753517  0.60985301    -0.17650
C1830       C  0.47941876  0.20072316  0.58257891     0.10740
S1831       S  0.53950511  0.25023219  0.63053292    -0.32620
S1832       S  0.45493465  0.18140859  0.56550027    -0.32620
H1833       H  0.44683369  0.20323122  0.55032620     0.28750
H1834       H  0.54763384  0.26642493  0.60948690     0.28740
H1835       H  0.52565155  0.24892724  0.57479366     0.19330
H1836       H  0.46857240  0.18320742  0.61939930     0.19340
C1837       C  0.49797184  0.23899987  0.72101355    -0.06490
C1838       C  0.51751698  0.23920780  0.74083069    -0.17620
C1839       C  0.51812211  0.25880547  0.76027539     0.10710
C1840       C  0.49862197  0.27878480  0.76022346    -0.06420
C1841       C  0.47903103  0.27864692  0.74050698    -0.17650
C1842       C  0.47818609  0.25880302  0.72124933     0.10740
S1843       S  0.54481620  0.25762531  0.78402441    -0.32620
S1844       S  0.45056573  0.25920090  0.69857485    -0.32620
H1845       H  0.44877217  0.23158770  0.69600049     0.28750
H1846       H  0.54719974  0.28513987  0.78707222     0.28740
H1847       H  0.53291903  0.22432248  0.74077088     0.19330
H1848       H  0.46377306  0.29368796  0.74062700     0.19340
C1849       C  0.99792757  0.71661898  0.56916734    -0.06490
C1850       C  0.01251643  0.73428074  0.58493285    -0.17620
C1851       C  0.01424308  0.73100966  0.61243588     0.10710
C1852       C  0.99972353  0.71052109  0.62476044    -0.06420
C1853       C  0.98409514  0.69387655  0.60886925    -0.17650
C1854       C  0.98345415  0.69620865  0.58149698     0.10740
S1855       S  0.03682868  0.75230483  0.63000269    -0.32620
S1856       S  0.96376107  0.67210273  0.56391601    -0.32620
H1857       H  0.95545452  0.68898553  0.54355418     0.28750
H1858       H  0.04511952  0.73295696  0.64819725     0.28740
H1859       H  0.02390456  0.74981555  0.57561669     0.19330
H1860       H  0.97222130  0.67856123  0.61786484     0.19340
C1861       C  0.99348728  0.64316268  0.69520240    -0.06490
C1862       C  0.00797929  0.63259255  0.71645831    -0.17620
C1863       C  0.00816864  0.60532484  0.72140859     0.10710
C1864       C  0.99511673  0.58803998  0.70367629    -0.06420
C1865       C  0.97945696  0.59882223  0.68345396    -0.17650
C1866       C  0.97761447  0.62603283  0.67974831     0.10740
S1867       S  0.02616736  0.59391089  0.74989888    -0.32620
S1868       S  0.95395598  0.63748679  0.65550773    -0.32620
H1869       H  0.94864869  0.66165730  0.66813071     0.28750
H1870       H  0.00409719  0.58099086  0.76070808     0.28740
H1871       H  0.01960782  0.64554532  0.72896305     0.19330
H1872       H  0.96813515  0.58589562  0.67061970     0.19340
C1873       C  0.99630112  0.80539249  0.85534454    -0.06490
C1874       C  0.98030024  0.82211090  0.87052961    -0.17620
C1875       C  0.98065889  0.82134040  0.89800061     0.10710
C1876       C  0.99601736  0.80193838  0.91118212    -0.06420
C1877       C  0.01025796  0.78359972  0.89609388    -0.17650
C1878       C  0.01134693  0.78568448  0.86845946     0.10740
S1879       S  0.96169806  0.84667135  0.91436929    -0.32620
S1880       S  0.03432237  0.76443622  0.85171935    -0.32620
H1881       H  0.04413774  0.78454339  0.83527557     0.28750
H1882       H  0.95753676  0.83269022  0.93766020     0.28740
H1883       H  0.96814443  0.83690914  0.86086164     0.19330
H1884       H  0.02228383  0.76885940  0.90599590     0.19340
C1885       C  0.00467869  0.87398929  0.78596582    -0.06490
C1886       C  0.02284059  0.88911221  0.80060063    -0.17620
C1887       C  0.02329198  0.91659903  0.79901359     0.10710
C1888       C  0.00602421  0.92964991  0.78123727    -0.06420
C1889       C  0.98915986  0.91454984  0.76512449    -0.17650
C1890       C  0.98762542  0.88702418  0.76791025     0.10740
S1891       S  0.04608491  0.93334423  0.82088038    -0.32620
S1892       S  0.96187957  0.87031454  0.74970251    -0.32620
H1893       H  0.95474954  0.85333025  0.77048852     0.28750
H1894       H  0.04882932  0.95626971  0.80579779     0.28740
H1895       H  0.03630227  0.87941561  0.81421876     0.19330
H1896       H  0.97574404  0.92441757  0.75159657     0.19340
C1897       C  0.99835406  0.77843822  0.75937592    -0.06490
C1898       C  0.97831344  0.77946481  0.74009857    -0.17620
C1899       C  0.97605713  0.75984849  0.72069937     0.10710
C1900       C  0.99453714  0.73889826  0.72023814    -0.06420
C1901       C  0.01456901  0.73799089  0.73948541    -0.17650
C1902       C  0.01689934  0.75760284  0.75872666     0.10740
S1903       S  0.94866522  0.76219980  0.69787780    -0.32620
S1904       S  0.04476200  0.75550690  0.78095903    -0.32620
H1905       H  0.04838980  0.78293766  0.78351570     0.28750
H1906       H  0.94550574  0.73482275  0.69433038     0.28740
H1907       H  0.96395016  0.79535152  0.74055884     0.19330
H1908       H  0.02908272  0.72223851  0.73900326     0.19340
C1909       C  0.70977708  0.01000471  0.57007204    -0.06490
C1910       C  0.71677006  0.98716084  0.58420187    -0.17620
C1911       C  0.71363862  0.98589389  0.61173359     0.10710
C1912       C  0.70377540  0.00813972  0.62541953    -0.06420
C1913       C  0.69781193  0.03121211  0.61130156    -0.17650
C1914       C  0.70093209  0.03243165  0.58396798     0.10740
S1915       S  0.72123484  0.95503462  0.62791250    -0.32620
S1916       S  0.69335411  0.06323408  0.56796319    -0.32620
H1917       H  0.71342290  0.06104944  0.54898425     0.28750
H1918       H  0.70201443  0.95706798  0.64775682     0.28740
H1919       H  0.72354039  0.96984877  0.57361073     0.19330
H1920       H  0.69041650  0.04839471  0.62170193     0.19340
C1921       C  0.63579022  0.01283686  0.69531380    -0.06490
C1922       C  0.62435051  0.99121673  0.70825968    -0.17620
C1923       C  0.59689487  0.98909032  0.71078053     0.10710
C1924       C  0.58039739  0.00935966  0.70095413    -0.06420
C1925       C  0.59192388  0.03149722  0.68893462    -0.17650
C1926       C  0.61936642  0.03356738  0.68620362     0.10740
S1927       S  0.58413801  0.95888979  0.72420499    -0.32620
S1928       S  0.63219527  0.06300148  0.67074043    -0.32620
H1929       H  0.65696259  0.06240799  0.68347543     0.28750
H1930       H  0.56369315  0.95673033  0.70536676     0.28740
H1931       H  0.63677305  0.97502529  0.71483678     0.19330
H1932       H  0.57941319  0.04725208  0.68149434     0.19340
C1933       C  0.79797306  0.00360318  0.85561092    -0.06490
C1934       C  0.78010639  0.02170676  0.86662520    -0.17620
C1935       C  0.77594735  0.02271597  0.89397980     0.10710
C1936       C  0.79074270  0.00602079  0.91090491    -0.06420
C1937       C  0.80778763  0.98728588  0.89976852    -0.17650
C1938       C  0.81092560  0.98534258  0.87243862     0.10740
S1939       S  0.75319038  0.04708104  0.90619036    -0.32620
S1940       S  0.83145488  0.95885793  0.86032554    -0.32620
H1941       H  0.81804269  0.95594406  0.83608703     0.28750
H1942       H  0.73713315  0.02824001  0.91875110     0.28740
H1943       H  0.76996391  0.03571180  0.85394068     0.19330
H1944       H  0.81860183  0.97382619  0.91250507     0.19340
C1945       C  0.86735688  0.01194873  0.78708633    -0.06490
C1946       C  0.87921333  0.99100635  0.77336186    -0.17620
C1947       C  0.90678103  0.98919123  0.77125887     0.10710
C1948       C  0.92287853  0.00886349  0.78287596    -0.06420
C1949       C  0.91097459  0.03016900  0.79589476    -0.17650
C1950       C  0.88348446  0.03219238  0.79766545     0.10740
S1951       S  0.92025386  0.96041490  0.75523273    -0.32620
S1952       S  0.87014613  0.06117624  0.81350512    -0.32620
H1953       H  0.84607260  0.06129795  0.79946952     0.28750
H1954       H  0.94227336  0.95796789  0.77212674     0.28740
H1955       H  0.86700822  0.97524053  0.76550332     0.19330
H1956       H  0.92319199  0.04556673  0.80444428     0.19340
C1957       C  0.73151786  0.00653578  0.72094428    -0.06490
C1958       C  0.73320996  0.02782902  0.73865406    -0.17620
C1959       C  0.75319885  0.02907889  0.75784447     0.10710
C1960       C  0.77184396  0.00837589  0.75980996    -0.06420
C1961       C  0.77023312  0.98710085  0.74210995    -0.17650
C1962       C  0.75014373  0.98577599  0.72298380     0.10740
S1963       S  0.75424372  0.05794190  0.77873070    -0.32620
S1964       S  0.74871186  0.95656243  0.70263434    -0.32620
H1965       H  0.72103266  0.95620345  0.69992173     0.28750
H1966       H  0.78186149  0.05838222  0.78200020     0.28740
H1967       H  0.71917416  0.04394533  0.73711373     0.19330
H1968       H  0.78430404  0.97102325  0.74371538     0.19340
C1969       C  0.70485105  0.64458487  0.99541680    -0.06490
C1970       C  0.71761998  0.63306602  0.97375792    -0.17620
C1971       C  0.72027634  0.60555969  0.97166934     0.10710
C1972       C  0.70981110  0.58919384  0.99178463    -0.06420
C1973       C  0.69799002  0.60085058  0.01387931    -0.17650
C1974       C  0.69587450  0.62826891  0.01615694     0.10740
S1975       S  0.73584710  0.59315703  0.94212519    -0.32620
S1976       S  0.68148478  0.64127603  0.04599670    -0.32620
H1977       H  0.69510311  0.66550929  0.04554920     0.28750
H1978       H  0.72810173  0.56672655  0.94415809     0.28740
H1979       H  0.72446026  0.64552998  0.95776657     0.19330
H1980       H  0.69043216  0.58844333  0.02959599     0.19340
C1981       C  0.63545516  0.71357320  0.99274943    -0.06490
C1982       C  0.62078330  0.70492099  0.97083028    -0.17620
C1983       C  0.59345076  0.70848374  0.96953130     0.10710
C1984       C  0.58021945  0.72077861  0.99068629    -0.06420
C1985       C  0.59491233  0.73044786  0.01217635    -0.17650
C1986       C  0.62235766  0.72662170  0.01362795     0.10740
S1987       S  0.57648711  0.69694072  0.94034292    -0.32620
S1988       S  0.63915145  0.73725210  0.04327584    -0.32620
H1989       H  0.65769810  0.71656475  0.04390579     0.28750
H1990       H  0.55782641  0.71747368  0.94004072     0.28740
H1991       H  0.63072367  0.69504382  0.95468252     0.19330
H1992       H  0.58477936  0.73972394  0.02855084     0.19340
C1993       C  0.86571256  0.80533329  0.98801714    -0.06490
C1994       C  0.87841825  0.79466190  0.01031237    -0.17620
C1995       C  0.90609107  0.79321824  0.01171335     0.10710
C1996       C  0.92133272  0.80236221  0.99024306    -0.06420
C1997       C  0.90841677  0.81167856  0.96753461    -0.17650
C1998       C  0.88093001  0.81308883  0.96607988     0.10740
S1999       S  0.92074975  0.78103970  0.04189940    -0.32620
S2000       S  0.86640381  0.82548099  0.93587111    -0.32620
H2001       H  0.84234151  0.81177392  0.93820833     0.28750
H2002       H  0.94269573  0.79806590  0.04160583     0.28740
H2003       H  0.86679684  0.78888445  0.02731440     0.19330
H2004       H  0.91972035  0.81777680  0.95052303     0.19340
C2005       C  0.79798360  0.87560025  0.99313049    -0.06490
C2006       C  0.81168263  0.89071014  0.01199147    -0.17620
C2007       C  0.80923196  0.91815056  0.01297537     0.10710
C2008       C  0.79218493  0.93113104  0.99493800    -0.06420
C2009       C  0.77740036  0.91599637  0.97691117    -0.17650
C2010       C  0.78060837  0.88851049  0.97534070     0.10740
S2011       S  0.82881230  0.93511213  0.03761620    -0.32620
S2012       S  0.76375181  0.87157878  0.94883724    -0.32620
H2013       H  0.78442044  0.85380417  0.94349790     0.28750
H2014       H  0.81153371  0.95640329  0.04133143     0.28740
H2015       H  0.82488668  0.88101786  0.02586409     0.19330
H2016       H  0.76457656  0.92582518  0.96278904     0.19340
C2017       C  0.76989576  0.78017560  0.99111943    -0.06490
C2018       C  0.75284227  0.77854209  0.01283339    -0.17620
C2019       C  0.73369095  0.75864388  0.01448850     0.10710
C2020       C  0.73106131  0.74015187  0.99372659    -0.06420
C2021       C  0.74803460  0.74184684  0.97195142    -0.17650
C2022       C  0.76714107  0.76178957  0.97025950     0.10740
S2023       S  0.71391761  0.75737193  0.04401566    -0.32620
S2024       S  0.78668495  0.76327860  0.94057046    -0.32620
H2025       H  0.78956829  0.79092344  0.94036733     0.28750
H2026       H  0.71091943  0.72974783  0.04439210     0.28740
H2027       H  0.75496987  0.79244250  0.02897699     0.19330
H2028       H  0.74591615  0.72791746  0.95582911     0.19340
C2029       C  0.70493343  0.51171624  0.85484454    -0.06490
C2030       C  0.71049637  0.48786485  0.86782664    -0.17620
C2031       C  0.71368150  0.48697351  0.89532985     0.10710
C2032       C  0.71094177  0.51044362  0.91020054    -0.06420
C2033       C  0.70551961  0.53426494  0.89711863    -0.17650
C2034       C  0.70295318  0.53523889  0.86963574     0.10740
S2035       S  0.71862026  0.45496636  0.91026483    -0.32620
S2036       S  0.69596228  0.56687441  0.85470718    -0.32620
H2037       H  0.70800288  0.56152536  0.83032894     0.28750
H2038       H  0.73328018  0.46369554  0.93216581     0.28740
H2039       H  0.71143916  0.46969614  0.85654797     0.19330
H2040       H  0.70268329  0.55218702  0.90839409     0.19340
C2041       C  0.63516613  0.51046576  0.78591031    -0.06490
C2042       C  0.62181960  0.53437002  0.78153615    -0.17620
C2043       C  0.59431594  0.53493460  0.77824525     0.10710
C2044       C  0.57985307  0.51112241  0.77956623    -0.06420
C2045       C  0.59328495  0.48720444  0.78327664    -0.17650
C2046       C  0.62075087  0.48658820  0.78643538     0.10740
S2047       S  0.57869914  0.56667196  0.77394656    -0.32620
S2048       S  0.63603382  0.45490415  0.79236024    -0.32620
H2049       H  0.66073879  0.46117291  0.78146447     0.28750
H2050       H  0.55800460  0.55751776  0.75779418     0.28740
H2051       H  0.63281835  0.55274799  0.78144127     0.19330
H2052       H  0.58224816  0.46891652  0.78414395     0.19340
C2053       C  0.79694993  0.50922071  0.62439737    -0.06490
C2054       C  0.79316620  0.53333080  0.61124500    -0.17620
C2055       C  0.79177223  0.53442818  0.58362441     0.10710
C2056       C  0.79366171  0.51085994  0.56885524    -0.06420
C2057       C  0.79673695  0.48668690  0.58203235    -0.17650
C2058       C  0.79832615  0.48560096  0.60962590     0.10740
S2059       S  0.78843164  0.56648596  0.56840524    -0.32620
S2060       S  0.80299021  0.45363978  0.62477309    -0.32620
H2061       H  0.79108691  0.45982049  0.64901960     0.28750
H2062       H  0.80386547  0.56081245  0.54612727     0.28740
H2063       H  0.79252226  0.55152063  0.62251003     0.19330
H2064       H  0.79815191  0.46856601  0.57072124     0.19340
C2065       C  0.86449197  0.50731678  0.69554020    -0.06490
C2066       C  0.87715263  0.53068189  0.70344233    -0.17620
C2067       C  0.90454472  0.53142518  0.70753810     0.10710
C2068       C  0.91960225  0.50826682  0.70359997    -0.06420
C2069       C  0.90685196  0.48481779  0.69613838    -0.17650
C2070       C  0.87946481  0.48401640  0.69234813     0.10740
S2071       S  0.91925551  0.56302974  0.71510352    -0.32620
S2072       S  0.86491866  0.45296393  0.68250705    -0.32620
H2073       H  0.83986556  0.45761109  0.69344752     0.28750
H2074       H  0.94033610  0.55329128  0.73035354     0.28740
H2075       H  0.86574811  0.54869869  0.70541645     0.19330
H2076       H  0.91838809  0.46711377  0.69272297     0.19340
C2077       C  0.76873199  0.51019522  0.71919045    -0.06490
C2078       C  0.75211353  0.53224575  0.72161924    -0.17620
C2079       C  0.73316040  0.53362313  0.74166029     0.10710
C2080       C  0.73031919  0.51225436  0.75942248    -0.06420
C2081       C  0.74684425  0.49015753  0.75688843    -0.17650
C2082       C  0.76574588  0.48875926  0.73684728     0.10740
S2083       S  0.71389357  0.56351076  0.74408838    -0.32620
S2084       S  0.78487173  0.45877694  0.73435538    -0.32620
H2085       H  0.78758347  0.45944989  0.70672390     0.28750
H2086       H  0.71098231  0.56283744  0.77169630     0.28740
H2087       H  0.75445068  0.54882363  0.70827122     0.19330
H2088       H  0.74454928  0.47358503  0.77025519     0.19340
C2089       C  0.70245918  0.87537873  0.49050344    -0.06490
C2090       C  0.69363328  0.88958266  0.46838192    -0.17620
C2091       C  0.69593354  0.91704405  0.46707759     0.10710
C2092       C  0.70796415  0.93084434  0.48826072    -0.06420
C2093       C  0.71776354  0.91656177  0.51000386    -0.17650
C2094       C  0.71458091  0.88906604  0.51163914     0.10740
S2095       S  0.68267153  0.93271432  0.43780782    -0.32620
S2096       S  0.72471379  0.87296243  0.54182993    -0.32620
H2097       H  0.70463375  0.85374748  0.54183899     0.28750
H2098       H  0.69308194  0.95791808  0.44187651     0.28740
H2099       H  0.68418875  0.87915438  0.45219246     0.19330
H2100       H  0.72659233  0.92706621  0.52647831     0.19340
C2101       C  0.63472682  0.80518052  0.49234665    -0.06490
C2102       C  0.62210101  0.79596673  0.46942327    -0.17620
C2103       C  0.59452740  0.79361437  0.46828324     0.10710
C2104       C  0.57937111  0.80037328  0.49066987    -0.06420
C2105       C  0.59226961  0.80819616  0.51392969    -0.17650
C2106       C  0.61968971  0.81059457  0.51506023     0.10740
S2107       S  0.58003493  0.78295843  0.43746000    -0.32620
S2108       S  0.63429582  0.82124575  0.54587784    -0.32620
H2109       H  0.65875391  0.80856123  0.54236037     0.28750
H2110       H  0.55628475  0.79689213  0.44009900     0.28740
H2111       H  0.63367623  0.79187021  0.45193196     0.19330
H2112       H  0.58105292  0.81234861  0.53149513     0.19340
C2113       C  0.79910477  0.64533356  0.48863684    -0.06490
C2114       C  0.81317634  0.63035960  0.47004495    -0.17620
C2115       C  0.81096001  0.60288906  0.46894225     0.10710
C2116       C  0.79385569  0.58970546  0.48656150    -0.06420
C2117       C  0.77860200  0.60464764  0.50417076    -0.17650
C2118       C  0.78153734  0.63215977  0.50591869     0.10740
S2119       S  0.83058531  0.58602445  0.44450012    -0.32620
S2120       S  0.76402330  0.64873520  0.53203774    -0.32620
H2121       H  0.78450670  0.66655002  0.53811584     0.28750
H2122       H  0.81261767  0.56540394  0.43992782     0.28740
H2123       H  0.82636545  0.64018004  0.45637032     0.19330
H2124       H  0.76553075  0.59465350  0.51781921     0.19340
C2125       C  0.86512960  0.71768757  0.49022035    -0.06490
C2126       C  0.87832434  0.72311251  0.51399030    -0.17620
C2127       C  0.90574230  0.72674444  0.51461784     0.10710
C2128       C  0.92030943  0.72420565  0.49098733    -0.06420
C2129       C  0.90696130  0.71966291  0.46711060    -0.17650
C2130       C  0.87949640  0.71677968  0.46641740     0.10740
S2131       S  0.92080329  0.73293280  0.54639651    -0.32620
S2132       S  0.86404923  0.71082039  0.43477954    -0.32620
H2133       H  0.83952450  0.72220578  0.44101447     0.28750
H2134       H  0.94320745  0.74625409  0.53709064     0.28740
H2135       H  0.86728045  0.72369136  0.53228047     0.19330
H2136       H  0.91808450  0.71786184  0.44894386     0.19340
C2137       C  0.76936658  0.74048448  0.49060197    -0.06490
C2138       C  0.76685713  0.75704434  0.51268295    -0.17620
C2139       C  0.74719320  0.77645276  0.51373837     0.10710
C2140       C  0.72992525  0.77984077  0.49199768    -0.06420
C2141       C  0.73231581  0.76318607  0.46998328    -0.17650
C2142       C  0.75200364  0.74379638  0.46891024     0.10740
S2143       S  0.74470744  0.79569580  0.54361539    -0.32620
S2144       S  0.75455245  0.72467876  0.43896654    -0.32620
H2145       H  0.78219282  0.72178922  0.43979021     0.28750
H2146       H  0.71715229  0.79923706  0.54251222     0.28740
H2147       H  0.78005743  0.75450782  0.52941572     0.19330
H2148       H  0.71914163  0.76576760  0.45323653     0.19340
C2149       C  0.49989428  0.71256405  0.85618569    -0.06490
C2150       C  0.51522411  0.73298643  0.86723142    -0.17620
C2151       C  0.51520840  0.73774688  0.89456210     0.10710
C2152       C  0.50068795  0.72088648  0.91136235    -0.06420
C2153       C  0.48504980  0.70095993  0.90015763    -0.17650
C2154       C  0.48344583  0.69743511  0.87289354     0.10740
S2155       S  0.53556142  0.76412927  0.90697566    -0.32620
S2156       S  0.45918557  0.67454394  0.85983662    -0.32620
H2157       H  0.44965405  0.66511853  0.88413794     0.28750
H2158       H  0.51426814  0.77709137  0.91916204     0.28740
H2159       H  0.52763456  0.74496213  0.85459874     0.19330
H2160       H  0.47380079  0.68811625  0.91292774     0.19340
C2161       C  0.50102541  0.64384078  0.78692435    -0.06490
C2162       C  0.48329732  0.62885044  0.80202787    -0.17620
C2163       C  0.48134390  0.60156670  0.79927921     0.10710
C2164       C  0.49710029  0.58850920  0.78036476    -0.06420
C2165       C  0.51344119  0.60358416  0.76378444    -0.17650
C2166       C  0.51608364  0.63098628  0.76726538     0.10740
S2167       S  0.45844103  0.58492951  0.82094247    -0.32620
S2168       S  0.54033253  0.64779153  0.74740679    -0.32620
H2169       H  0.54822750  0.66569634  0.76715772     0.28750
H2170       H  0.45177973  0.56449029  0.80347062     0.28740
H2171       H  0.47095597  0.63850174  0.81651309     0.19330
H2172       H  0.52553300  0.59376457  0.74917164     0.19340
C2173       C  0.50142661  0.80508147  0.62522291    -0.06490
C2174       C  0.51862737  0.82074915  0.61024355    -0.17620
C2175       C  0.51908033  0.81937793  0.58279021     0.10710
C2176       C  0.50298401  0.80065005  0.56956485    -0.06420
C2177       C  0.48714008  0.78354157  0.58452528    -0.17650
C2178       C  0.48562495  0.78598283  0.61217393     0.10740
S2179       S  0.54007981  0.84306150  0.56641547    -0.32620
S2180       S  0.46156457  0.76656233  0.62993808    -0.32620
H2181       H  0.45281520  0.75128743  0.60839830     0.28750
H2182       H  0.54313059  0.82893504  0.54304689     0.28740
H2183       H  0.53115963  0.83513577  0.62002985     0.19330
H2184       H  0.47463768  0.76945939  0.57432851     0.19340
C2185       C  0.48974082  0.87441791  0.69399846    -0.06490
C2186       C  0.50415424  0.88463722  0.71550260    -0.17620
C2187       C  0.50629629  0.91192166  0.71981728     0.10710
C2188       C  0.49510441  0.92970217  0.70118002    -0.06420
C2189       C  0.47936732  0.91939980  0.68071552    -0.17650
C2190       C  0.47548622  0.89226904  0.67776710     0.10740
S2191       S  0.52350916  0.92184633  0.74948551    -0.32620
S2192       S  0.45097166  0.88198163  0.65383990    -0.32620
H2193       H  0.44436652  0.85836103  0.66691544     0.28750
H2194       H  0.53410647  0.94527518  0.73976084     0.28740
H2195       H  0.51465725  0.87135986  0.72864519     0.19330
H2196       H  0.46920664  0.93270406  0.66729572     0.19340
C2197       C  0.49829188  0.77911733  0.72130100    -0.06490
C2198       C  0.47769388  0.77786041  0.73977735    -0.17620
C2199       C  0.47711156  0.75826039  0.75927103     0.10710
C2200       C  0.49771413  0.73944763  0.76058048    -0.06420
C2201       C  0.51832336  0.74070712  0.74219626    -0.17650
C2202       C  0.51912503  0.76050823  0.72295830     0.11940
S2203       S  0.44910082  0.75786207  0.78118468    -0.32620
S2204       S  0.54799184  0.76164461  0.70219404    -0.32620
H2205       H  0.54857207  0.78933542  0.69987129     0.28750
H2206       H  0.44848619  0.73029221  0.78459423     0.28740
H2207       H  0.46154143  0.79188536  0.73859959     0.19330
H2208       H  0.53441775  0.72660382  0.74340496     0.19340
loop_ 
_geom_bond_atom_site_label_1 
_geom_bond_atom_site_label_2 
_geom_bond_distance 
_geom_bond_site_symmetry_2 
_ccdc_geom_bond_type 
C1            C2   1.407       .  A
C1            C6   1.407       .  A
C1         C2197   1.483       .  S
C2            C3   1.405       .  A
C2            H7   1.083       .  S
C3            C4   1.401       .  A
C3         C2185   1.492       .  S
C4            C5   1.402       .  A
C4            H8   1.082       .  S
C5            C6   1.402       .  A
C5         C2173   1.488       .  S
C6            H9   1.082       .  S
C10          C11   1.406       .  A
C10          C15   1.407       .  A
C10        C2200   1.478       .  S
C11          C12   1.402       .  A
C11          H16   1.083       .  S
C12          C13   1.401       .  A
C12        C2161   1.486       .  S
C13          C14   1.401       .  A
C13          H17   1.084       .  S
C14          C15   1.402       .  A
C14        C2149   1.486       .  S
C15          H18   1.083       .  S
C19          C20   1.403       .  A
C19          C24   1.408       .  A
C19        C2137   1.478       .  S
C20          C21   1.397       .  A
C20          H25   1.084       .  S
C21          C22   1.397       .  A
C21        C2125   1.471       .  S
C22          C23   1.403       .  A
C22          H26   1.084       .  S
C23          C24   1.407       .  A
C23        C2113   1.488       .  S
C24          H27   1.083       .  S
C28          C29   1.404       .  A
C28          C33   1.409       .  A
C28        C2140   1.477       .  S
C29          C30   1.398       .  A
C29          H34   1.084       .  S
C30          C31   1.397       .  A
C30        C2101   1.469       .  S
C31          C32   1.398       .  A
C31          H35   1.085       .  S
C32          C33   1.405       .  A
C32        C2089   1.478       .  S
C33          H36   1.083       .  S
C37          C38   1.406       .  A
C37          C42   1.406       .  A
C37        C2077   1.480       .  S
C38          C39   1.401       .  A
C38          H43   1.083       .  S
C39          C40   1.399       .  A
C39        C2065   1.474       .  S
C40          C41   1.399       .  A
C40          H44   1.085       .  S
C41          C42   1.404       .  A
C41        C2053   1.474       .  S
C42          H45   1.083       .  S
C46          C47   1.406       .  A
C46          C51   1.406       .  A
C46        C2080   1.480       .  S
C47          C48   1.402       .  A
C47          H52   1.083       .  S
C48          C49   1.399       .  A
C48        C2041   1.473       .  S
C49          C50   1.399       .  A
C49          H53   1.085       .  S
C50          C51   1.402       .  A
C50        C2029   1.473       .  S
C51          H54   1.084       .  S
C55          C56   1.408       .  A
C55          C60   1.407       .  A
C55        C2017   1.481       .  S
C56          C57   1.405       .  A
C56          H61   1.083       .  S
C57          C58   1.400       .  A
C57        C2005   1.484       .  S
C58          C59   1.397       .  A
C58          H62   1.085       .  S
C59          C60   1.400       .  A
C59        C1993   1.475       .  S
C60          H63   1.083       .  S
C64          C65   1.407       .  A
C64          C69   1.407       .  A
C64        C2020   1.480       .  S
C65          C66   1.403       .  A
C65          H70   1.084       .  S
C66          C67   1.399       .  A
C66        C1981   1.478       .  S
C67          C68   1.400       .  A
C67          H71   1.084       .  S
C68          C69   1.403       .  A
C68        C1969   1.478       .  S
C69          H72   1.084       .  S
C73          C74   1.407       .  A
C73          C78   1.407       .  A
C73        C1960   1.481       .  S
C74          C75   1.403       .  A
C74          H79   1.084       .  S
C75          C76   1.400       .  A
C75        C1945   1.480       .  S
C76          C77   1.401       .  A
C76          H80   1.084       .  S
C77          C78   1.404       .  A
C77        C1933   1.484       .  S
C78          H81   1.084       .  S
C82          C83   1.408       .  A
C82          C87   1.408       .  A
C82        C1957   1.484       .  S
C83          C84   1.403       .  A
C83          H88   1.084       .  S
C84          C85   1.399       .  A
C84        C1921   1.479       .  S
C85          C86   1.399       .  A
C85          H89   1.084       .  S
C86          C87   1.403       .  A
C86        C1912   1.478       .  S
C87          H90   1.084       .  S
C91          C92   1.406   1_655  A
C91          C96   1.409       .  A
C91        C1897   1.479       .  S
C92          C93   1.402       .  A
C92          H97   1.083       .  S
C93          C94   1.400       .  A
C93        C1885   1.487       .  S
C94          C95   1.402   1_455  A
C94          H98   1.083       .  S
C95          C96   1.404       .  A
C95        C1873   1.490       .  S
C96          H99   1.083       .  S
C100        C101   1.406       .  A
C100        C105   1.408       .  A
C100       C1900   1.480       .  S
C101        C102   1.400       .  A
C101        H106   1.084       .  S
C102        C103   1.399   1_655  A
C102       C1861   1.483       .  S
C103        C104   1.403       .  A
C103        H107   1.084       .  S
C104        C105   1.406   1_455  A
C104       C1852   1.491   1_455  S
C105        H108   1.082       .  S
C109        C110   1.408       .  A
C109        C114   1.408       .  A
C109       C1837   1.486       .  S
C110        C111   1.404       .  A
C110        H115   1.082       .  S
C111        C112   1.402       .  A
C111       C1828   1.487       .  S
C112        C113   1.401       .  A
C112        H116   1.084       .  S
C113        C114   1.402       .  A
C113       C1813   1.485       .  S
C114        H117   1.084       .  S
C118        C119   1.406       .  A
C118        C123   1.406       .  A
C118       C1840   1.479       .  S
C119        C120   1.403       .  A
C119        H124   1.083       .  S
C120        C121   1.401       .  A
C120       C1801   1.483       .  S
C121        C122   1.402       .  A
C121        H125   1.084       .  S
C122        C123   1.402       .  A
C122       C1789   1.484       .  S
C123        H126   1.084       .  S
O127        V135   1.895       .  S
O127        C137   1.262       .  A
O128        V135   1.896       .  S
O128        C138   1.262       .  A
O129        V135   1.893       .  S
O129        C139   1.263       .  A
O130        V135   1.897   1_565  S
O130        C140   1.266       .  A
O131        V136   1.902   1_565  S
O131        C140   1.263       .  A
O132        V136   1.906       .  S
O132        C139   1.265       .  A
O133        V136   1.906       .  S
O133        C138   1.265       .  A
O134        V136   1.913       .  S
O134        C137   1.267       .  A
V135        V136   2.088       .  T
C137       C1924   1.476       .  S
C138       C1777   1.470       .  S
C139       C1816   1.473       .  S
C140       C2188   1.483       .  S
C141        C142   1.408       .  A
C141        C146   1.405       .  A
C141       C1765   1.481       .  S
C142        C143   1.408       .  A
C142        H147   1.082       .  S
C143        C144   1.405       .  A
C143       C1756   1.494       .  S
C144        C145   1.399       .  A
C144        H148   1.083       .  S
C145        C146   1.396       .  A
C145       C1741   1.475       .  S
C146        H149   1.084       .  S
C150        C151   1.410       .  A
C150        C155   1.405   1_455  A
C150       C1768   1.479       .  S
C151        C152   1.408   1_455  A
C151        H156   1.081       .  S
C152        C153   1.407       .  A
C152       C1720   1.499       .  S
C153        C154   1.398       .  A
C153        H157   1.083       .  S
C154        C155   1.398       .  A
C154       C1729   1.480   1_655  S
C155        H158   1.083   1_655  S
C159        C160   1.406       .  A
C159        C164   1.405       .  A
C159       C1705   1.479       .  S
C160        C161   1.405       .  A
C160        H165   1.083       .  S
C161        C162   1.403       .  A
C161       C1693   1.482       .  S
C162        C163   1.399       .  A
C162        H166   1.085       .  S
C163        C164   1.399       .  A
C163       C1681   1.473       .  S
C164        H167   1.083       .  S
C168        C169   1.405       .  A
C168        C173   1.406       .  A
C168       C1708   1.478       .  S
C169        C170   1.400       .  A
C169        H174   1.083       .  S
C170        C171   1.400       .  A
C170       C1780   1.477       .  S
C171        C172   1.404       .  A
C171        H175   1.084       .  S
C172        C173   1.405       .  A
C172       C1669   1.485       .  S
C173        H176   1.084       .  S
O177        V185   1.904   1_565  S
O177        C187   1.265       .  A
O178        V185   1.907   1_655  S
O178        C188   1.265   1_655  A
O179        V185   1.907       .  S
O179        C189   1.265       .  A
O180        V185   1.902   1_655  S
O180        C190   1.264       .  A
O181        V186   1.900   1_655  S
O181        C190   1.264       .  A
O182        V186   1.900       .  S
O182        C189   1.264       .  A
O183        V186   1.888       .  S
O183        C188   1.261       .  A
O184        V186   1.893   1_565  S
O184        C187   1.263       .  A
V185        V186   2.088       .  T
C187       C1888   1.474       .  S
C188       C1744   1.468       .  S
C189       C1684   1.473       .  S
C190       C1948   1.473       .  S
C191        C192   1.407       .  A
C191        C196   1.405       .  A
C191       C1657   1.477       .  S
C192        C193   1.405       .  A
C192        H197   1.084       .  S
C193        C194   1.401       .  A
C193       C1648   1.482       .  S
C194        C195   1.400       .  A
C194        H198   1.084       .  S
C195        C196   1.403       .  A
C195       C1633   1.478       .  S
C196        H199   1.084       .  S
C200        C201   1.406       .  A
C200        C205   1.407       .  A
C200       C1660   1.477       .  S
C201        C202   1.402       .  A
C201        H206   1.084       .  S
C202        C203   1.399       .  A
C202       C1621   1.480       .  S
C203        C204   1.403       .  A
C203        H207   1.084       .  S
C204        C205   1.407       .  A
C204       C1609   1.489       .  S
C205        H208   1.083       .  S
O209        V217   1.908   1_455  S
O209        C219   1.265       .  A
O210        V217   1.905       .  S
O210        C220   1.265       .  A
O211        V217   1.905       .  S
O211        C221   1.265       .  A
O212        V217   1.903       .  S
O212        C222   1.263       .  A
O213        V218   1.892       .  S
O213        C222   1.265       .  A
O214        V218   1.890       .  S
O214        C221   1.263       .  A
O215        V218   1.894       .  S
O215        C220   1.262       .  A
O216        V218   1.895   1_455  S
O216        C219   1.262       .  A
V217        V218   2.089       .  T
C219       C1636   1.473       .  S
C220       C2068   1.468       .  S
C221       C1732   1.471       .  S
C222       C1864   1.479       .  S
O223        V231   1.887       .  S
O223        C233   1.262       .  A
O224        V231   1.889       .  S
O224        C234   1.261       .  A
O225        V231   1.899       .  S
O225        C235   1.263       .  A
O226        V231   1.901       .  S
O226        C236   1.265       .  A
O227        V232   1.903       .  S
O227        C236   1.264       .  A
O228        V232   1.902       .  S
O228        C235   1.264       .  A
O229        V232   1.911       .  S
O229        C234   1.267       .  A
O230        V232   1.908       .  S
O230        C233   1.266       .  A
V231        V232   2.087       .  T
C233       C2164   1.475       .  S
C234       C1804   1.476       .  S
C235       C2044   1.469       .  S
C236       C1624   1.474       .  S
C237        C238   1.405       .  A
C237        C242   1.404       .  A
C237       C1597   1.477       .  S
C238        C239   1.405       .  A
C238        H243   1.083       .  S
C239        C240   1.403       .  A
C239       C1585   1.490       .  S
C240        C241   1.399       .  A
C240        H244   1.082       .  S
C241        C242   1.400       .  A
C241       C1573   1.483       .  S
C242        H245   1.083       .  S
C246        C247   1.405       .  A
C246        C251   1.406       .  A
C246       C1600   1.474       .  S
C247        C248   1.401       .  A
C247        H252   1.083       .  S
C248        C249   1.401       .  A
C248       C1561   1.485       .  S
C249        C250   1.402       .  A
C249        H253   1.084       .  S
C250        C251   1.403       .  A
C250       C1549   1.487       .  S
C251        H254   1.083       .  S
O255        V263   1.896       .  S
O255        C265   1.263       .  A
O256        V263   1.893       .  S
O256        C266   1.263       .  A
O257        V263   1.885       .  S
O257        C267   1.262       .  A
O258        V263   1.892   1_554  S
O258        C268   1.263       .  A
O259        V264   1.903   1_554  S
O259        C268   1.264       .  A
O260        V264   1.909       .  S
O260        C267   1.265       .  A
O261        V264   1.907       .  S
O261        C266   1.265       .  A
O262        V264   1.905       .  S
O262        C265   1.264       .  A
V263        V264   2.088       .  T
C265       C1984   1.472       .  S
C266       C1537   1.472       .  S
C267       C2152   1.478       .  S
C268       C1576   1.472       .  S
C269        C270   1.410       .  A
C269        C274   1.410       .  A
C269       C1525   1.487       .  S
C270        C271   1.404       .  A
C270        H275   1.083       .  S
C271        C272   1.399       .  A
C271       C1513   1.485       .  S
C272        C273   1.400       .  A
C272        H276   1.085       .  S
C273        C274   1.404       .  A
C273       C1501   1.484       .  S
C274        H277   1.083       .  S
C278        C279   1.408       .  A
C278        C283   1.408       .  A
C278       C1528   1.484       .  S
C279        C280   1.402       .  A
C279        H284   1.083       .  S
C280        C281   1.399       .  A
C280       C1540   1.479       .  S
C281        C282   1.399       .  A
C281        H285   1.085       .  S
C282        C283   1.404       .  A
C282       C1489   1.480       .  S
C283        H286   1.084       .  S
C287        C288   1.405       .  A
C287        C292   1.408       .  A
C287       C1477   1.478       .  S
C288        C289   1.399       .  A
C288        H293   1.084       .  S
C289        C290   1.399       .  A
C289       C1465   1.482       .  S
C290        C291   1.406       .  A
C290        H294   1.083       .  S
C291        C292   1.407       .  A
C291       C1453   1.495       .  S
C292        H295   1.082   1_655  S
C296        C297   1.407       .  A
C296        C301   1.404       .  A
C296       C1480   1.482   1_655  S
C297        C298   1.407       .  A
C297        H302   1.083       .  S
C298        C299   1.407       .  A
C298       C1441   1.495       .  S
C299        C300   1.401       .  A
C299        H303   1.083       .  S
C300        C301   1.398       .  A
C300       C1432   1.475       .  S
C301        H304   1.084   1_655  S
O305        V313   1.912   1_554  S
O305        C315   1.268       .  A
O306        V313   1.912   1_655  S
O306        C316   1.268       .  A
O307        V313   1.906       .  S
O307        C317   1.264       .  A
O308        V313   1.902   1_655  S
O308        C318   1.263       .  A
O309        V314   1.904   1_655  S
O309        C318   1.265       .  A
O310        V314   1.902       .  S
O310        C317   1.266       .  A
O311        V314   1.886       .  S
O311        C316   1.261   1_455  A
O312        V314   1.884   1_654  S
O312        C315   1.260   1_655  A
V313        V314   2.085       .  T
C315       C1456   1.482       .  S
C316       C1876   1.477       .  S
C317       C1504   1.479       .  S
C318       C1996   1.474       .  S
C319        C320   1.408       .  A
C319        C324   1.407       .  A
C319       C1417   1.482       .  S
C320        C321   1.403       .  A
C320        H325   1.084       .  S
C321        C322   1.396       .  A
C321       C1405   1.475       .  S
C322        C323   1.399       .  A
C322        H326   1.085       .  S
C323        C324   1.402       .  A
C323       C1393   1.476       .  S
C324        H327   1.084       .  S
C328        C329   1.408       .  A
C328        C333   1.406       .  A
C328       C1420   1.480       .  S
C329        C330   1.405       .  A
C329        H334   1.083       .  S
C330        C331   1.400       .  A
C330       C1381   1.484       .  S
C331        C332   1.397       .  A
C331        H335   1.085       .  S
C332        C333   1.402       .  A
C332       C1369   1.477       .  S
C333        H336   1.084       .  S
O337        V345   1.898       .  S
O337        C347   1.263       .  A
O338        V345   1.900   1_655  S
O338        C348   1.263       .  A
O339        V345   1.904   1_655  S
O339        C349   1.265       .  A
O340        V345   1.908       .  S
O340        C350   1.266   1_455  A
O341        V346   1.889       .  S
O341        C350   1.261       .  A
O342        V346   1.889   1_455  S
O342        C349   1.262   1_455  A
O343        V346   1.898       .  S
O343        C348   1.263       .  A
O344        V346   1.895   1_455  S
O344        C347   1.263       .  A
V345        V346   2.088   1_455  T
C347       C1396   1.468       .  S
C348       C2128   1.467       .  S
C349       C1849   1.475       .  S
C350       C1429   1.468       .  S
O351        V359   1.884       .  S
O351        C361   1.260       .  A
O352        V359   1.889       .  S
O352        C362   1.262       .  A
O353        V359   1.900       .  S
O353        C363   1.264       .  A
O354        V359   1.897       .  S
O354        C364   1.264       .  A
O355        V360   1.900       .  S
O355        C364   1.263       .  A
O356        V360   1.901       .  S
O356        C363   1.263       .  A
O357        V360   1.910       .  S
O357        C362   1.267       .  A
O358        V360   1.910       .  S
O358        C361   1.267       .  A
V359        V360   2.086       .  T
C361       C1552   1.479       .  S
C362       C2176   1.476       .  S
C363       C2104   1.469       .  S
C364       C1372   1.469       .  S
C365        C366   1.405       .  A
C365        C370   1.406       .  A
C365       C1357   1.482       .  S
C366        C367   1.399       .  A
C366        H371   1.084       .  S
C367        C368   1.402       .  A
C367       C1345   1.481       .  S
C368        C369   1.406       .  A
C368        H372   1.083       .  S
C369        C370   1.407       .  A
C369       C1336   1.494       .  S
C370        H373   1.083       .  S
C374        C375   1.409       .  A
C374        C379   1.407       .  A
C374       C1360   1.482       .  S
C375        C376   1.407       .  A
C375        H380   1.081       .  S
C376        C377   1.404       .  A
C376       C1312   1.493       .  S
C377        C378   1.397       .  A
C377        H381   1.084       .  S
C378        C379   1.399       .  A
C378       C1321   1.482       .  S
C379        H382   1.084       .  S
O383        V391   1.893       .  S
O383        C393   1.262       .  A
O384        V391   1.893       .  S
O384        C394   1.262       .  A
O385        V391   1.890   1_565  S
O385        C395   1.263       .  A
O386        V391   1.893       .  S
O386        C396   1.265       .  A
O387        V392   1.904       .  S
O387        C396   1.263       .  A
O388        V392   1.910   1_565  S
O388        C395   1.266       .  A
O389        V392   1.912       .  S
O389        C394   1.267       .  A
O390        V392   1.911       .  S
O390        C393   1.267       .  A
V391        V392   2.087       .  T
C393       C1288   1.477       .  S
C394       C1297   1.474       .  S
C395       C1564   1.479       .  S
C396       C1333   1.480       .  S
O397        V405   1.899       .  S
O397        C407   1.264       .  A
O398        V405   1.901       .  S
O398        C408   1.264       .  A
O399        V405   1.887   1_554  S
O399        C409   1.261       .  A
O400        V405   1.885       .  S
O400        C410   1.261       .  A
O401        V406   1.913       .  S
O401        C410   1.268       .  A
O402        V406   1.909   1_554  S
O402        C409   1.267       .  A
O403        V406   1.901       .  S
O403        C408   1.263       .  A
O404        V406   1.899       .  S
O404        C407   1.263       .  A
V405        V406   2.086       .  T
C407       C1261   1.469       .  S
C408       C1273   1.468       .  S
C409       C1309   1.476       .  S
C410       C1792   1.476       .  S
C411        C412   1.408       .  A
C411        C416   1.405       .  A
C411       C1249   1.479       .  S
C412        C413   1.405       .  A
C412        H417   1.083       .  S
C413        C414   1.401       .  A
C413       C1237   1.485       .  S
C414        C415   1.397       .  A
C414        H418   1.085       .  S
C415        C416   1.399       .  A
C415       C1225   1.476       .  S
C416        H419   1.084       .  S
C420        C421   1.405       .  A
C420        C425   1.406       .  A
C420       C1252   1.478       .  S
C421        C422   1.405       .  A
C421        H426   1.083       .  S
C422        C423   1.404       .  A
C422       C1213   1.489       .  S
C423        C424   1.399       .  A
C423        H427   1.083       .  S
C424        C425   1.399       .  A
C424       C1204   1.476       .  S
C425        H428   1.084       .  S
O429        V437   1.904   1_455  S
O429        C439   1.263       .  A
O430        V437   1.903       .  S
O430        C440   1.264       .  A
O431        V437   1.912       .  S
O431        C441   1.267       .  A
O432        V437   1.915       .  S
O432        C442   1.269       .  A
O433        V438   1.880       .  S
O433        C442   1.258       .  A
O434        V438   1.889       .  S
O434        C441   1.261       .  A
O435        V438   1.898       .  S
O435        C440   1.264       .  A
O436        V438   1.902   1_455  S
O436        C439   1.265       .  A
V437        V438   2.087       .  T
C439       C1228   1.473       .  S
C440       C1177   1.471       .  S
C441       C1189   1.472       .  S
C442       C1717   1.485       .  S
O443        V451   1.896   1_565  S
O443        C453   1.264       .  A
O444        V451   1.893       .  S
O444        C454   1.262       .  A
O445        V451   1.891       .  S
O445        C455   1.263       .  A
O446        V451   1.897       .  S
O446        C456   1.263       .  A
O447        V452   1.903       .  S
O447        C456   1.264       .  A
O448        V452   1.908       .  S
O448        C455   1.265       .  A
O449        V452   1.904       .  S
O449        C454   1.264       .  A
O450        V452   1.901   1_565  S
O450        C453   1.264       .  A
V451        V452   2.089       .  T
C453       C1384   1.473       .  S
C454       C1201   1.468       .  S
C455       C1672   1.474       .  S
C456       C1165   1.473       .  S
C457        C458   1.406       .  A
C457        C462   1.407       .  A
C457       C1153   1.477       .  S
C458        C459   1.402       .  A
C458        H463   1.084       .  S
C459        C460   1.400       .  A
C459       C1141   1.480       .  S
C460        C461   1.402       .  A
C460        H464   1.084       .  S
C461        C462   1.403       .  A
C461       C1132   1.483       .  S
C462        H465   1.084       .  S
C466        C467   1.407       .  A
C466        C471   1.404       .  A
C466       C1156   1.478       .  S
C467        C468   1.404       .  A
C467        H472   1.084       .  S
C468        C469   1.402       .  A
C468       C1117   1.483       .  S
C469        C470   1.398       .  A
C469        H473   1.084       .  S
C470        C471   1.400       .  A
C470       C1276   1.471       .  S
C471        H474   1.084       .  S
C475        C476   1.406       .  A
C475        C480   1.408       .  A
C475       C1105   1.481       .  S
C476        C477   1.402       .  A
C476        H481   1.084       .  S
C477        C478   1.400       .  A
C477       C1096   1.478       .  S
C478        C479   1.401       .  A
C478        H482   1.084       .  S
C479        C480   1.405       .  A
C479       C1081   1.484       .  S
C480        H483   1.084       .  S
C484        C485   1.406       .  A
C484        C489   1.408       .  A
C484       C1108   1.482       .  S
C485        C486   1.401       .  A
C485        H490   1.084       .  S
C486        C487   1.399       .  A
C486       C1300   1.476       .  S
C487        C488   1.399       .  A
C487        H491   1.084       .  S
C488        C489   1.403       .  A
C488       C1168   1.476       .  S
C489        H492   1.084       .  S
C493        C494   1.410       .  A
C493        C498   1.404       .  A
C493       C1072   1.483       .  S
C494        C495   1.408       .  A
C494        H499   1.083       .  S
C495        C496   1.405       .  A
C495       C1057   1.494       .  S
C496        C497   1.400       .  A
C496        H500   1.083       .  S
C497        C498   1.397       .  A
C497       C1048   1.476       .  S
C498        H501   1.084       .  S
C502        C503   1.405       .  A
C502        C507   1.410       .  A
C502       C1069   1.482       .  S
C503        C504   1.398       .  A
C503        H508   1.084       .  S
C504        C505   1.402       .  A
C504       C1192   1.480       .  S
C505        C506   1.406       .  A
C505        H509   1.084       .  S
C506        C507   1.406       .  A
C506       C1033   1.493       .  S
C507        H510   1.083       .  S
O511        V519   1.907       .  S
O511        C521   1.265   1_655  A
O512        V519   1.906   1_565  S
O512        C522   1.265       .  A
O513        V519   1.906   1_455  S
O513        C523   1.265       .  A
O514        V519   1.907       .  S
O514        C524   1.265       .  A
O515        V520   1.891       .  S
O515        C524   1.262       .  A
O516        V520   1.895   1_455  S
O516        C523   1.263       .  A
O517        V520   1.893   1_565  S
O517        C522   1.263       .  A
O518        V520   1.893   1_455  S
O518        C521   1.265       .  A
V519        V520   2.085       .  T
C521       C1060   1.480       .  S
C522       C1468   1.472       .  S
C523       C1093   1.472       .  S
C524       C1021   1.471       .  S
O525        V533   1.912       .  S
O525        C535   1.267       .  A
O526        V533   1.907   1_554  S
O526        C536   1.265       .  A
O527        V533   1.907   1_565  S
O527        C537   1.265       .  A
O528        V533   1.907       .  S
O528        C538   1.266       .  A
O529        V534   1.896       .  S
O529        C538   1.264       .  A
O530        V534   1.895   1_565  S
O530        C537   1.263       .  A
O531        V534   1.898   1_554  S
O531        C536   1.264       .  A
O532        V534   1.893       .  S
O532        C535   1.262       .  A
V533        V534   2.086       .  T
C535       C1696   1.478       .  S
C536       C1084   1.476       .  S
C537       C1516   1.475       .  S
C538       C1129   1.476       .  S
O539        V547   1.906   1_455  S
O539        C549   1.265   1_455  A
O540        V547   1.905   1_554  S
O540        C550   1.265   1_655  A
O541        V547   1.911   1_455  S
O541        C551   1.266       .  A
O542        V547   1.910       .  S
O542        C552   1.267       .  A
O543        V548   1.896   1_655  S
O543        C552   1.263       .  A
O544        V548   1.894       .  S
O544        C551   1.263       .  A
O545        V548   1.892   1_554  S
O545        C550   1.263       .  A
O546        V548   1.891   1_655  S
O546        C549   1.265       .  A
V547        V548   2.082   1_655  T
C549       C1753   1.479   1_655  S
C550       C1045   1.469       .  S
C551       C1144   1.475       .  S
C552       C1012   1.474       .  S
C553        C554   1.406       .  A
C553        C558   1.410       .  A
C553       C1000   1.482       .  S
C554        C555   1.399       .  A
C554        H559   1.083       .  S
C555        C556   1.395       .  A
C555        C973   1.472       .  S
C556        C557   1.402       .  A
C556        H560   1.084       .  S
C557        C558   1.408       .  A
C557        C988   1.489       .  S
C558        H561   1.083       .  S
C562        C563   1.408       .  A
C562        C567   1.406       .  A
C562        C997   1.482       .  S
C563        C564   1.406       .  A
C563        H568   1.083       .  S
C564        C565   1.401       .  A
C564        C949   1.483       .  S
C565        C566   1.399       .  A
C565        H569   1.085       .  S
C566        C567   1.400       .  A
C566        C961   1.476       .  S
C567        H570   1.083       .  S
O571        V579   1.905   1_455  S
O571        C581   1.264       .  A
O572        V579   1.907       .  S
O572        C582   1.264       .  A
O573        V579   1.910       .  S
O573        C583   1.266       .  A
O574        V579   1.917   1_455  S
O574        C584   1.268       .  A
O575        V580   1.889   1_455  S
O575        C584   1.262       .  A
O576        V580   1.890       .  S
O576        C583   1.263       .  A
O577        V580   1.897       .  S
O577        C582   1.264       .  A
O578        V580   1.899   1_455  S
O578        C581   1.263       .  A
V579        V580   2.088       .  T
C581        C976   1.470       .  S
C582        C937   1.475       .  S
C583       C1444   1.481       .  S
C584       C1036   1.481       .  S
O585        V593   1.893   1_554  S
O585        C595   1.263       .  A
O586        V593   1.893       .  S
O586        C596   1.263       .  A
O587        V593   1.897       .  S
O587        C597   1.264       .  A
O588        V593   1.897       .  S
O588        C598   1.265       .  A
O589        V594   1.903       .  S
O589        C598   1.264       .  A
O590        V594   1.902       .  S
O590        C597   1.264       .  A
O591        V594   1.910       .  S
O591        C596   1.267       .  A
O592        V594   1.909   1_554  S
O592        C595   1.266       .  A
V593        V594   2.085       .  T
C595        C952   1.476       .  S
C596       C1612   1.478       .  S
C597       C1492   1.474       .  S
C598       C1120   1.476       .  S
O599        V607   1.905       .  S
O599        C609   1.265       .  A
O600        V607   1.908       .  S
O600        C610   1.266       .  A
O601        V607   1.904       .  S
O601        C611   1.264       .  A
O602        V607   1.905       .  S
O602        C612   1.264       .  A
O603        V608   1.897       .  S
O603        C612   1.265       .  A
O604        V608   1.896       .  S
O604        C611   1.263       .  A
O605        V608   1.894       .  S
O605        C610   1.264       .  A
O606        V608   1.898       .  S
O606        C609   1.263       .  A
V607        V608   2.088       .  T
C609       C1645   1.474       .  S
C610        C985   1.481       .  S
C611       C1408   1.469       .  S
C612       C1240   1.477       .  S
O613        V621   1.894       .  S
O613        C623   1.263       .  A
O614        V621   1.895       .  S
O614        C624   1.264       .  A
O615        V621   1.892       .  S
O615        C625   1.263       .  A
O616        V621   1.893       .  S
O616        C626   1.264       .  A
O617        V622   1.908       .  S
O617        C626   1.265       .  A
O618        V622   1.908       .  S
O618        C625   1.265       .  A
O619        V622   1.905       .  S
O619        C624   1.264       .  A
O620        V622   1.910       .  S
O620        C623   1.266       .  A
V621        V622   2.086       .  T
C623       C1825   1.481       .  S
C624       C1348   1.475       .  S
C625        C925   1.472       .  S
C626       C1216   1.480       .  S
O627        V635   1.891       .  S
O627        C637   1.263       .  A
O628        V635   1.891       .  S
O628        C638   1.264       .  A
O629        V635   1.893       .  S
O629        C639   1.263       .  A
O630        V635   1.893       .  S
O630        C640   1.262       .  A
O631        V636   1.912       .  S
O631        C640   1.267       .  A
O632        V636   1.909       .  S
O632        C639   1.265       .  A
O633        V636   1.905       .  S
O633        C638   1.264       .  A
O634        V636   1.905       .  S
O634        C637   1.265       .  A
V635        V636   2.086       .  T
C637       C1324   1.472       .  S
C638       C1588   1.481       .  S
C639        C913   1.476       .  S
C640        C964   1.474       .  S
C641        C642   1.406       .  A
C641        C646   1.406       .  A
C641        C901   1.478       .  S
C642        C643   1.401       .  A
C642        H647   1.084       .  S
C643        C644   1.401       .  A
C643        C916   1.481       .  S
C644        C645   1.401       .  A
C644        H648   1.084       .  S
C645        C646   1.404       .  A
C645        C889   1.486       .  S
C646        H649   1.084       .  S
C650        C651   1.406       .  A
C650        C655   1.407       .  A
C650        C904   1.476       .  S
C651        C652   1.401       .  A
C651        H656   1.084       .  S
C652        C653   1.399       .  A
C652        C940   1.479       .  S
C653        C654   1.401       .  A
C653        H657   1.084       .  S
C654        C655   1.403       .  A
C654        C877   1.483       .  S
C655        H658   1.084       .  S
O659        V667   1.898       .  S
O659        C669   1.264       .  A
O660        V667   1.894       .  S
O660        C670   1.264       .  A
O661        V667   1.894   1_554  S
O661        C671   1.263       .  A
O662        V667   1.896       .  S
O662        C672   1.262       .  A
O663        V668   1.906       .  S
O663        C672   1.265       .  A
O664        V668   1.906   1_554  S
O664        C671   1.266       .  A
O665        V668   1.903       .  S
O665        C670   1.264       .  A
O666        V668   1.903       .  S
O666        C669   1.264       .  A
V667        V668   2.087       .  T
C669       C1972   1.472       .  S
C670        C868   1.474       .  S
C671        C892   1.475       .  S
C672       C2032   1.470       .  S
C673        C674   1.406       .  A
C673        C678   1.407       .  A
C673        C856   1.480       .  S
C674        C675   1.402       .  A
C674        H679   1.084       .  S
C675        C676   1.398       .  A
C675       C1009   1.475       .  S
C676        C677   1.398       .  A
C676        H680   1.085       .  S
C677        C678   1.403       .  A
C677        C841   1.475       .  S
C678        H681   1.084       .  S
C682        C683   1.407       .  A
C682        C687   1.408       .  A
C682        C853   1.482       .  S
C683        C684   1.401       .  A
C683        H688   1.084       .  S
C684        C685   1.399       .  A
C684       C1264   1.477       .  S
C685        C686   1.402       .  A
C685        H689   1.084       .  S
C686        C687   1.405       .  A
C686        C865   1.486       .  S
C687        H690   1.084       .  S
C691        C692   1.407       .  A
C691        C696   1.408       .  A
C691        C829   1.481       .  S
C692        C693   1.403       .  A
C692        H697   1.083       .  S
C693        C694   1.399       .  A
C693       C1024   1.480       .  S
C694        C695   1.399       .  A
C694        H698   1.085       .  S
C695        C696   1.404       .  A
C695        C817   1.482       .  S
C696        H699   1.083       .  S
C700        C701   1.407       .  A
C700        C705   1.407       .  A
C700        C832   1.480       .  S
C701        C702   1.403       .  A
C701        H706   1.083       .  S
C702        C703   1.397       .  A
C702        C808   1.478       .  S
C703        C704   1.402       .  A
C703        H707   1.085       .  S
C704        C705   1.404       .  A
C704       C1285   1.483       .  S
C705        H708   1.083       .  S
O709        V717   1.901   1_554  S
O709        C719   1.264       .  A
O710        V717   1.904       .  S
O710        C720   1.264       .  A
O711        V717   1.906   1_565  S
O711        C721   1.266       .  A
O712        V717   1.906       .  S
O712        C722   1.265       .  A
O713        V718   1.894       .  S
O713        C722   1.263       .  A
O714        V718   1.892   1_565  S
O714        C721   1.263       .  A
O715        V718   1.898       .  S
O715        C720   1.265       .  A
O716        V718   1.897   1_554  S
O716        C719   1.265       .  A
V717        V718   2.085       .  T
C719        C820   1.475       .  S
C720       C1936   1.479       .  S
C721       C2008   1.475       .  S
C722        C844   1.470       .  S
C723        C724   1.407       .  A
C723        C728   1.407       .  A
C723        C793   1.481       .  S
C724        C725   1.403       .  A
C724        H729   1.083       .  S
C725        C726   1.399       .  A
C725        C928   1.481       .  S
C726        C727   1.402       .  A
C726        H730   1.084       .  S
C727        C728   1.404       .  A
C727        C781   1.487       .  S
C728        H731   1.084       .  S
C732        C733   1.407       .  A
C732        C737   1.408       .  A
C732        C796   1.481       .  S
C733        C734   1.401       .  A
C733        H738   1.084       .  S
C734        C735   1.399       .  A
C734       C1180   1.481       .  S
C735        C736   1.402       .  A
C735        H739   1.084       .  S
C736        C737   1.405       .  A
C736        C769   1.487       .  S
C737        H740   1.083       .  S
O741        V749   1.902       .  S
O741        C751   1.265       .  A
O742        V749   1.902       .  S
O742        C752   1.265       .  A
O743        V749   1.897   1_565  S
O743        C753   1.263       .  A
O744        V749   1.891       .  S
O744        C754   1.263       .  A
O745        V750   1.908       .  S
O745        C754   1.266       .  A
O746        V750   1.907   1_565  S
O746        C753   1.265       .  A
O747        V750   1.904       .  S
O747        C752   1.264       .  A
O748        V750   1.905       .  S
O748        C751   1.264       .  A
V749        V750   2.088       .  T
C751       C1909   1.474       .  S
C752        C805   1.473       .  S
C753       C2092   1.473       .  S
C754        C784   1.480       .  S
O755        V763   1.893       .  S
O755        C765   1.264       .  A
O756        V763   1.899       .  S
O756        C766   1.263       .  A
O757        V763   1.893       .  S
O757        C767   1.263       .  A
O758        V763   1.895       .  S
O758        C768   1.263       .  A
O759        V764   1.905       .  S
O759        C768   1.265       .  A
O760        V764   1.911       .  S
O760        C767   1.266       .  A
O761        V764   1.903       .  S
O761        C766   1.264       .  A
O762        V764   1.907       .  S
O762        C765   1.265       .  A
V763        V764   2.088       .  T
C765        C880   1.477       .  S
C766       C2056   1.469       .  S
C767        C772   1.480       .  S
C768       C2116   1.476       .  S
C769        C770   1.403       .  A
C769        C774   1.417       .  A
C770        C771   1.392       .  A
C770        H779   1.084       .  S
C771        C772   1.412       .  A
C771        S775   1.798       .  S
C772        C773   1.404       .  A
C773        C774   1.406       .  A
C773        H780   1.084       .  S
C774        S776   1.802       .  S
S775        H778   1.404       .  S
S776        H777   1.406       .  S
C781        C782   1.407       .  A
C781        C786   1.415       .  A
C782        C783   1.404       .  A
C782        H791   1.083       .  S
C783        C784   1.414       .  A
C783        S787   1.798       .  S
C784        C785   1.402       .  A
C785        C786   1.394       .  A
C785        H792   1.082       .  S
C786        S788   1.806       .  S
S787        H790   1.406       .  S
S788        H789   1.407       .  S
C793        C794   1.403       .  A
C793        C798   1.414       .  A
C794        C795   1.399       .  A
C794        H803   1.084       .  S
C795        C796   1.414       .  A
C795        S799   1.804       .  S
C796        C797   1.404       .  A
C797        C798   1.401       .  A
C797        H804   1.084       .  S
C798        S800   1.804       .  S
S799        H802   1.407       .  S
S800        H801   1.406       .  S
C805        C806   1.402   1_545  A
C805        C810   1.414       .  A
C806        C807   1.399       .  A
C806        H815   1.082       .  S
C807        C808   1.412   1_565  A
C807        S811   1.801       .  S
C808        C809   1.403       .  A
C809        C810   1.401       .  A
C809        H816   1.084       .  S
C810        S812   1.805       .  S
S811        H814   1.401       .  S
S812        H813   1.400       .  S
C817        C818   1.403   1_545  A
C817        C822   1.415       .  A
C818        C819   1.402       .  A
C818        H827   1.084       .  S
C819        C820   1.417   1_565  A
C819        S823   1.805       .  S
C820        C821   1.402       .  A
C821        C822   1.396       .  A
C821        H828   1.084       .  S
C822        S824   1.806       .  S
S823        H826   1.401       .  S
S824        H825   1.407       .  S
C829        C830   1.403   1_545  A
C829        C834   1.414       .  A
C830        C831   1.400       .  A
C830        H839   1.084       .  S
C831        C832   1.413   1_565  A
C831        S835   1.803       .  S
C832        C833   1.403       .  A
C833        C834   1.401       .  A
C833        H840   1.084       .  S
C834        S836   1.804       .  S
S835        H838   1.406       .  S
S836        H837   1.406       .  S
C841        C842   1.402       .  A
C841        C846   1.412   1_556  A
C842        C843   1.396       .  A
C842        H851   1.084       .  S
C843        C844   1.412       .  A
C843        S847   1.805       .  S
C844        C845   1.404   1_556  A
C845        C846   1.402       .  A
C845        H852   1.084       .  S
C846        S848   1.804       .  S
S847        H850   1.402       .  S
S848        H849   1.406       .  S
C853        C854   1.404       .  A
C853        C858   1.414   1_556  A
C854        C855   1.400       .  A
C854        H863   1.084       .  S
C855        C856   1.413       .  A
C855        S859   1.804       .  S
C856        C857   1.403   1_556  A
C857        C858   1.400       .  A
C857        H864   1.084       .  S
C858        S860   1.804       .  S
S859        H862   1.406       .  S
S860        H861   1.406       .  S
C865        C866   1.405   1_556  A
C865        C870   1.414       .  A
C866        C867   1.403       .  A
C866        H875   1.083       .  S
C867        C868   1.416   1_554  A
C867        S871   1.805       .  S
C868        C869   1.400       .  A
C869        C870   1.394       .  A
C869        H876   1.084       .  S
C870        S872   1.802       .  S
S871        H874   1.401       .  S
S872        H873   1.407       .  S
C877        C878   1.405       .  A
C877        C882   1.414       .  A
C878        C879   1.405       .  A
C878        H887   1.083       .  S
C879        C880   1.416       .  A
C879        S883   1.804       .  S
C880        C881   1.401       .  A
C881        C882   1.392       .  A
C881        H888   1.080       .  S
C882        S884   1.806       .  S
S883        H886   1.403       .  S
S884        H885   1.407       .  S
C889        C890   1.404       .  A
C889        C894   1.416       .  A
C890        C891   1.395       .  A
C890        H899   1.084       .  S
C891        C892   1.414       .  A
C891        S895   1.806       .  S
C892        C893   1.404       .  A
C893        C894   1.403       .  A
C893        H900   1.084       .  S
C894        S896   1.803       .  S
S895        H898   1.400       .  S
S896        H897   1.407       .  S
C901        C902   1.403       .  A
C901        C906   1.414       .  A
C902        C903   1.399       .  A
C902        H911   1.084       .  S
C903        C904   1.413       .  A
C903        S907   1.804       .  S
C904        C905   1.402       .  A
C905        C906   1.398       .  A
C905        H912   1.084       .  S
C906        S908   1.804       .  S
S907        H910   1.406       .  S
S908        H909   1.407       .  S
C913        C914   1.403       .  A
C913        C918   1.411       .  A
C914        C915   1.405       .  A
C914        H923   1.083       .  S
C915        C916   1.416       .  A
C915        S919   1.803       .  S
C916        C917   1.401       .  A
C917        C918   1.392       .  A
C917        H924   1.084       .  S
C918        S920   1.797       .  S
S919        H922   1.406       .  S
S920        H921   1.406       .  S
C925        C926   1.404       .  A
C925        C930   1.410       .  A
C926        C927   1.404       .  A
C926        H935   1.083       .  S
C927        C928   1.414       .  A
C927        S931   1.803       .  S
C928        C929   1.404       .  A
C929        C930   1.396       .  A
C929        H936   1.084       .  S
C930        S932   1.804       .  S
S931        H934   1.406       .  S
S932        H933   1.406       .  S
C937        C938   1.404       .  A
C937        C942   1.408       .  A
C938        C939   1.405       .  A
C938        H947   1.084       .  S
C939        C940   1.414       .  A
C939        S943   1.803       .  S
C940        C941   1.402       .  A
C941        C942   1.392       .  A
C941        H948   1.084       .  S
C942        S944   1.794       .  S
S943        H946   1.406       .  S
S944        H945   1.407       .  S
C949        C950   1.404       .  A
C949        C954   1.415       .  A
C950        C951   1.397       .  A
C950        H959   1.084       .  S
C951        C952   1.410       .  A
C951        S955   1.799       .  S
C952        C953   1.404       .  A
C953        C954   1.404       .  A
C953        H960   1.083       .  S
C954        S956   1.803       .  S
S955        H958   1.407       .  S
S956        H957   1.406       .  S
C961        C962   1.401       .  A
C961        C966   1.412       .  A
C962        C963   1.399       .  A
C962        H971   1.084       .  S
C963        C964   1.412       .  A
C963        S967   1.797       .  S
C964        C965   1.403       .  A
C965        C966   1.400       .  A
C965        H972   1.084       .  S
C966        S968   1.804       .  S
S967        H970   1.406       .  S
S968        H969   1.406       .  S
C973        C974   1.400       .  A
C973        C978   1.413       .  A
C974        C975   1.400       .  A
C974        H983   1.084       .  S
C975        C976   1.413       .  A
C975        S979   1.799       .  S
C976        C977   1.401       .  A
C977        C978   1.398       .  A
C977        H984   1.083       .  S
C978        S980   1.804       .  S
S979        H982   1.405       .  S
S980        H981   1.405       .  S
C985        C986   1.401       .  A
C985        C990   1.417       .  A
C986        C987   1.392       .  A
C986        H995   1.081       .  S
C987        C988   1.415       .  A
C987        S991   1.806       .  S
C988        C989   1.407       .  A
C989        C990   1.406       .  A
C989        H996   1.083       .  S
C990        S992   1.803       .  S
S991        H994   1.407       .  S
S992        H993   1.402       .  S
C997        C998   1.403       .  A
C997       C1002   1.414       .  A
C998        C999   1.401       .  A
C998       H1007   1.084       .  S
C999       C1000   1.414       .  A
C999       S1003   1.804       .  S
C1000      C1001   1.403       .  A
C1001      C1002   1.401       .  A
C1001      H1008   1.084       .  S
C1002      S1004   1.804       .  S
S1003      H1006   1.406       .  S
S1004      H1005   1.407       .  S
C1009      C1010   1.401       .  A
C1009      C1014   1.412   1_556  A
C1010      C1011   1.399       .  A
C1010      H1019   1.084       .  S
C1011      C1012   1.412       .  A
C1011      S1015   1.796       .  S
C1012      C1013   1.403   1_556  A
C1013      C1014   1.398       .  A
C1013      H1020   1.083       .  S
C1014      S1016   1.804       .  S
S1015      H1018   1.407       .  S
S1016      H1017   1.406       .  S
C1021      C1022   1.405   1_545  A
C1021      C1026   1.413       .  A
C1022      C1023   1.403       .  A
C1022      H1031   1.084       .  S
C1023      C1024   1.413   1_565  A
C1023      S1027   1.803       .  S
C1024      C1025   1.403       .  A
C1025      C1026   1.394       .  A
C1025      H1032   1.084       .  S
C1026      S1028   1.807       .  S
S1027      H1030   1.406       .  S
S1028      H1029   1.398       .  S
C1033      C1034   1.409   1_655  A
C1033      C1038   1.412       .  A
C1034      C1035   1.408       .  A
C1034      H1043   1.083       .  S
C1035      C1036   1.414       .  A
C1035      S1039   1.802       .  S
C1036      C1037   1.399   1_455  A
C1037      C1038   1.395       .  A
C1037      H1044   1.078       .  S
C1038      S1040   1.806       .  S
S1039      H1042   1.404       .  S
S1040      H1041   1.406       .  S
C1045      C1046   1.400       .  A
C1045      C1050   1.415   1_455  A
C1046      C1047   1.394       .  A
C1046      H1055   1.085       .  S
C1047      C1048   1.411       .  A
C1047      S1051   1.803       .  S
C1048      C1049   1.403   1_455  A
C1049      C1050   1.402       .  A
C1049      H1056   1.084       .  S
C1050      S1052   1.804       .  S
S1051      H1054   1.406       .  S
S1052      H1053   1.400       .  S
C1057      C1058   1.407   1_455  A
C1057      C1062   1.416       .  A
C1058      C1059   1.404       .  A
C1058      H1067   1.083       .  S
C1059      C1060   1.416   1_655  A
C1059      S1063   1.804       .  S
C1060      C1061   1.401       .  A
C1061      C1062   1.398       .  A
C1061      H1068   1.083       .  S
C1062      S1064   1.807       .  S
S1063      H1066   1.401       .  S
S1064      H1065   1.407       .  S
C1069      C1070   1.405   1_655  A
C1069      C1074   1.413       .  A
C1070      C1071   1.400       .  A
C1070      H1079   1.083       .  S
C1071      C1072   1.414       .  A
C1071      S1075   1.804       .  S
C1072      C1073   1.405   1_455  A
C1073      C1074   1.399       .  A
C1073      H1080   1.083       .  S
C1074      S1076   1.804       .  S
S1075      H1078   1.406       .  S
S1076      H1077   1.406       .  S
C1081      C1082   1.405   1_545  A
C1081      C1086   1.415       .  A
C1082      C1083   1.397       .  A
C1082      H1091   1.084       .  S
C1083      C1084   1.411   1_565  A
C1083      S1087   1.804       .  S
C1084      C1085   1.403       .  A
C1085      C1086   1.402       .  A
C1085      H1092   1.082       .  S
C1086      S1088   1.803       .  S
S1087      H1090   1.405       .  S
S1088      H1089   1.406       .  S
C1093      C1094   1.401   1_545  A
C1093      C1098   1.413       .  A
C1094      C1095   1.397       .  A
C1094      H1103   1.084       .  S
C1095      C1096   1.413   1_565  A
C1095      S1099   1.805       .  S
C1096      C1097   1.403       .  A
C1097      C1098   1.401       .  A
C1097      H1104   1.084       .  S
C1098      S1100   1.803       .  S
S1099      H1102   1.407       .  S
S1100      H1101   1.405       .  S
C1105      C1106   1.404       .  A
C1105      C1110   1.413   1_545  A
C1106      C1107   1.401       .  A
C1106      H1115   1.084       .  S
C1107      C1108   1.415       .  A
C1107      S1111   1.804       .  S
C1108      C1109   1.404   1_545  A
C1109      C1110   1.399       .  A
C1109      H1116   1.084       .  S
C1110      S1112   1.804       .  S
S1111      H1114   1.406       .  S
S1112      H1113   1.406       .  S
C1117      C1118   1.404       .  A
C1117      C1122   1.414   1_556  A
C1118      C1119   1.402       .  A
C1118      H1127   1.083       .  S
C1119      C1120   1.416       .  A
C1119      S1123   1.805       .  S
C1120      C1121   1.403   1_556  A
C1121      C1122   1.396       .  A
C1121      H1128   1.084       .  S
C1122      S1124   1.805       .  S
S1123      H1126   1.401       .  S
S1124      H1125   1.407       .  S
C1129      C1130   1.400       .  A
C1129      C1134   1.413   1_556  A
C1130      C1131   1.395       .  A
C1130      H1139   1.079       .  S
C1131      C1132   1.413       .  A
C1131      S1135   1.806       .  S
C1132      C1133   1.405   1_556  A
C1133      C1134   1.404       .  A
C1133      H1140   1.083       .  S
C1134      S1136   1.800       .  S
S1135      H1138   1.407       .  S
S1136      H1137   1.403       .  S
C1141      C1142   1.402       .  A
C1141      C1146   1.414   1_556  A
C1142      C1143   1.394       .  A
C1142      H1151   1.084       .  S
C1143      C1144   1.411       .  A
C1143      S1147   1.800       .  S
C1144      C1145   1.404   1_556  A
C1145      C1146   1.405       .  A
C1145      H1152   1.084       .  S
C1146      S1148   1.803       .  S
S1147      H1150   1.406       .  S
S1148      H1149   1.406       .  S
C1153      C1154   1.402   1_556  A
C1153      C1158   1.413       .  A
C1154      C1155   1.400       .  A
C1154      H1163   1.084       .  S
C1155      C1156   1.413   1_554  A
C1155      S1159   1.804       .  S
C1156      C1157   1.403       .  A
C1157      C1158   1.400       .  A
C1157      H1164   1.084       .  S
C1158      S1160   1.804       .  S
S1159      H1162   1.406       .  S
S1160      H1161   1.406       .  S
C1165      C1166   1.402       .  A
C1165      C1170   1.413   1_545  A
C1166      C1167   1.398       .  A
C1166      H1175   1.083       .  S
C1167      C1168   1.412       .  A
C1167      S1171   1.805       .  S
C1168      C1169   1.403   1_545  A
C1169      C1170   1.402       .  A
C1169      H1176   1.083       .  S
C1170      S1172   1.801       .  S
S1171      H1174   1.406       .  S
S1172      H1173   1.403       .  S
C1177      C1178   1.401       .  A
C1177      C1182   1.413       .  A
C1178      C1179   1.397       .  A
C1178      H1187   1.084       .  S
C1179      C1180   1.413       .  A
C1179      S1183   1.805       .  S
C1180      C1181   1.405       .  A
C1181      C1182   1.403       .  A
C1181      H1188   1.083       .  S
C1182      S1184   1.805       .  S
S1183      H1186   1.407       .  S
S1184      H1185   1.402       .  S
C1189      C1190   1.400       .  A
C1189      C1194   1.412   1_655  A
C1190      C1191   1.399       .  A
C1190      H1199   1.083       .  S
C1191      C1192   1.410       .  A
C1191      S1195   1.804       .  S
C1192      C1193   1.403   1_655  A
C1193      C1194   1.402       .  A
C1193      H1200   1.084       .  S
C1194      S1196   1.798       .  S
S1195      H1198   1.407       .  S
S1196      H1197   1.403       .  S
C1201      C1202   1.400       .  A
C1201      C1206   1.414       .  A
C1202      C1203   1.395       .  A
C1202      H1211   1.084       .  S
C1203      C1204   1.412       .  A
C1203      S1207   1.803       .  S
C1204      C1205   1.403       .  A
C1205      C1206   1.403       .  A
C1205      H1212   1.083       .  S
C1206      S1208   1.805       .  S
S1207      H1210   1.406       .  S
S1208      H1209   1.401       .  S
C1213      C1214   1.407       .  A
C1213      C1218   1.414       .  A
C1214      C1215   1.404       .  A
C1214      H1223   1.083       .  S
C1215      C1216   1.413       .  A
C1215      S1219   1.795       .  S
C1216      C1217   1.400       .  A
C1217      C1218   1.392       .  A
C1217      H1224   1.080       .  S
C1218      S1220   1.802       .  S
S1219      H1222   1.406       .  S
S1220      H1221   1.407       .  S
C1225      C1226   1.400       .  A
C1225      C1230   1.414       .  A
C1226      C1227   1.394       .  A
C1226      H1235   1.084       .  S
C1227      C1228   1.409       .  A
C1227      S1231   1.795       .  S
C1228      C1229   1.402       .  A
C1229      C1230   1.402       .  A
C1229      H1236   1.080       .  S
C1230      S1232   1.803       .  S
S1231      H1234   1.405       .  S
S1232      H1233   1.406       .  S
C1237      C1238   1.403       .  A
C1237      C1242   1.417       .  A
C1238      C1239   1.392       .  A
C1238      H1247   1.084       .  S
C1239      C1240   1.410       .  A
C1239      S1243   1.797       .  S
C1240      C1241   1.404       .  A
C1241      C1242   1.405       .  A
C1241      H1248   1.083       .  S
C1242      S1244   1.802       .  S
S1243      H1246   1.405       .  S
S1244      H1245   1.406       .  S
C1249      C1250   1.404       .  A
C1249      C1254   1.413       .  A
C1250      C1251   1.398       .  A
C1250      H1259   1.084       .  S
C1251      C1252   1.412       .  A
C1251      S1255   1.804       .  S
C1252      C1253   1.404       .  A
C1253      C1254   1.400       .  A
C1253      H1260   1.084       .  S
C1254      S1256   1.804       .  S
S1255      H1258   1.406       .  S
S1256      H1257   1.406       .  S
C1261      C1262   1.399       .  A
C1261      C1266   1.413   1_556  A
C1262      C1263   1.397       .  A
C1262      H1271   1.084       .  S
C1263      C1264   1.413       .  A
C1263      S1267   1.803       .  S
C1264      C1265   1.403   1_556  A
C1265      C1266   1.402       .  A
C1265      H1272   1.083       .  S
C1266      S1268   1.803       .  S
S1267      H1270   1.406       .  S
S1268      H1269   1.405       .  S
C1273      C1274   1.402       .  A
C1273      C1278   1.411   1_556  A
C1274      C1275   1.401       .  A
C1274      H1283   1.085       .  S
C1275      C1276   1.413       .  A
C1275      S1279   1.807       .  S
C1276      C1277   1.402   1_556  A
C1277      C1278   1.397       .  A
C1277      H1284   1.084       .  S
C1278      S1280   1.803       .  S
S1279      H1282   1.402       .  S
S1280      H1281   1.404       .  S
C1285      C1286   1.406       .  A
C1285      C1290   1.413   1_545  A
C1286      C1287   1.405       .  A
C1286      H1295   1.084       .  S
C1287      C1288   1.413       .  A
C1287      S1291   1.802       .  S
C1288      C1289   1.401   1_545  A
C1289      C1290   1.393       .  A
C1289      H1296   1.079       .  S
C1290      S1292   1.806       .  S
S1291      H1294   1.406       .  S
S1292      H1293   1.407       .  S
C1297      C1298   1.403   1_545  A
C1297      C1302   1.411       .  A
C1298      C1299   1.399       .  A
C1298      H1307   1.084       .  S
C1299      C1300   1.412   1_565  A
C1299      S1303   1.804       .  S
C1300      C1301   1.401       .  A
C1301      C1302   1.399       .  A
C1301      H1308   1.084       .  S
C1302      S1304   1.795       .  S
S1303      H1306   1.406       .  S
S1304      H1305   1.407       .  S
C1309      C1310   1.405       .  A
C1309      C1314   1.414       .  A
C1310      C1311   1.405       .  A
C1310      H1319   1.084       .  S
C1311      C1312   1.418       .  A
C1311      S1315   1.802       .  S
C1312      C1313   1.406       .  A
C1313      C1314   1.391       .  A
C1313      H1320   1.083       .  S
C1314      S1316   1.808       .  S
S1315      H1318   1.406       .  S
S1316      H1317   1.399       .  S
C1321      C1322   1.404       .  A
C1321      C1326   1.415       .  A
C1322      C1323   1.403       .  A
C1322      H1331   1.083       .  S
C1323      C1324   1.414       .  A
C1323      S1327   1.801       .  S
C1324      C1325   1.400       .  A
C1325      C1326   1.394       .  A
C1325      H1332   1.084       .  S
C1326      S1328   1.805       .  S
S1327      H1330   1.405       .  S
S1328      H1329   1.407       .  S
C1333      C1334   1.402       .  A
C1333      C1338   1.419       .  A
C1334      C1335   1.393       .  A
C1334      H1343   1.084       .  S
C1335      C1336   1.415       .  A
C1335      S1339   1.800       .  S
C1336      C1337   1.407       .  A
C1337      C1338   1.404       .  A
C1337      H1344   1.083       .  S
C1338      S1340   1.805       .  S
S1339      H1342   1.407       .  S
S1340      H1341   1.392       .  S
C1345      C1346   1.403       .  A
C1345      C1350   1.413       .  A
C1346      C1347   1.402       .  A
C1346      H1355   1.083       .  S
C1347      C1348   1.413       .  A
C1347      S1351   1.795       .  S
C1348      C1349   1.400       .  A
C1349      C1350   1.395       .  A
C1349      H1356   1.084       .  S
C1350      S1352   1.801       .  S
S1351      H1354   1.405       .  S
S1352      H1353   1.407       .  S
C1357      C1358   1.405       .  A
C1357      C1362   1.413       .  A
C1358      C1359   1.401       .  A
C1358      H1367   1.084       .  S
C1359      C1360   1.414       .  A
C1359      S1363   1.804       .  S
C1360      C1361   1.404       .  A
C1361      C1362   1.397       .  A
C1361      H1368   1.084       .  S
C1362      S1364   1.804       .  S
S1363      H1366   1.406       .  S
S1364      H1365   1.406       .  S
C1369      C1370   1.403       .  A
C1369      C1374   1.414       .  A
C1370      C1371   1.395       .  A
C1370      H1379   1.084       .  S
C1371      C1372   1.410       .  A
C1371      S1375   1.803       .  S
C1372      C1373   1.403       .  A
C1373      C1374   1.402       .  A
C1373      H1380   1.084       .  S
C1374      S1376   1.804       .  S
S1375      H1378   1.405       .  S
S1376      H1377   1.406       .  S
C1381      C1382   1.405       .  A
C1381      C1386   1.415       .  A
C1382      C1383   1.395       .  A
C1382      H1391   1.084       .  S
C1383      C1384   1.412       .  A
C1383      S1387   1.806       .  S
C1384      C1385   1.404       .  A
C1385      C1386   1.402       .  A
C1385      H1392   1.083       .  S
C1386      S1388   1.802       .  S
S1387      H1390   1.402       .  S
S1388      H1389   1.406       .  S
C1393      C1394   1.403       .  A
C1393      C1398   1.413       .  A
C1394      C1395   1.400       .  A
C1394      H1403   1.083       .  S
C1395      C1396   1.413       .  A
C1395      S1399   1.803       .  S
C1396      C1397   1.400       .  A
C1397      C1398   1.396       .  A
C1397      H1404   1.083       .  S
C1398      S1400   1.805       .  S
S1399      H1402   1.406       .  S
S1400      H1401   1.407       .  S
C1405      C1406   1.402       .  A
C1405      C1410   1.412       .  A
C1406      C1407   1.398       .  A
C1406      H1415   1.084       .  S
C1407      C1408   1.413       .  A
C1407      S1411   1.806       .  S
C1408      C1409   1.402       .  A
C1409      C1410   1.401       .  A
C1409      H1416   1.084       .  S
C1410      S1412   1.803       .  S
S1411      H1414   1.400       .  S
S1412      H1413   1.400       .  S
C1417      C1418   1.404       .  A
C1417      C1422   1.414       .  A
C1418      C1419   1.400       .  A
C1418      H1427   1.083       .  S
C1419      C1420   1.413       .  A
C1419      S1423   1.803       .  S
C1420      C1421   1.403       .  A
C1421      C1422   1.400       .  A
C1421      H1428   1.083       .  S
C1422      S1424   1.803       .  S
S1423      H1426   1.406       .  S
S1424      H1425   1.406       .  S
C1429      C1430   1.401       .  A
C1429      C1434   1.413   1_655  A
C1430      C1431   1.397       .  A
C1430      H1439   1.085       .  S
C1431      C1432   1.412       .  A
C1431      S1435   1.804       .  S
C1432      C1433   1.402   1_655  A
C1433      C1434   1.401       .  A
C1433      H1440   1.084       .  S
C1434      S1436   1.803       .  S
S1435      H1438   1.405       .  S
S1436      H1437   1.403       .  S
C1441      C1442   1.409   1_655  A
C1441      C1446   1.416       .  A
C1442      C1443   1.403       .  A
C1442      H1451   1.083       .  S
C1443      C1444   1.417   1_455  A
C1443      S1447   1.805       .  S
C1444      C1445   1.404       .  A
C1445      C1446   1.396       .  A
C1445      H1452   1.084       .  S
C1446      S1448   1.804       .  S
S1447      H1450   1.397       .  S
S1448      H1449   1.407       .  S
C1453      C1454   1.405   1_655  A
C1453      C1458   1.419       .  A
C1454      C1455   1.391       .  A
C1454      H1463   1.083       .  S
C1455      C1456   1.415       .  A
C1455      S1459   1.799       .  S
C1456      C1457   1.405   1_455  A
C1457      C1458   1.404       .  A
C1457      H1464   1.083       .  S
C1458      S1460   1.800       .  S
S1459      H1462   1.408   1_455  S
S1460      H1461   1.406       .  S
C1465      C1466   1.405   1_655  A
C1465      C1470   1.413       .  A
C1466      C1467   1.402       .  A
C1466      H1475   1.084       .  S
C1467      C1468   1.412   1_455  A
C1467      S1471   1.803       .  S
C1468      C1469   1.402       .  A
C1469      C1470   1.397       .  A
C1469      H1476   1.084       .  S
C1470      S1472   1.805       .  S
S1471      H1474   1.405       .  S
S1472      H1473   1.407       .  S
C1477      C1478   1.402   1_655  A
C1477      C1482   1.413       .  A
C1478      C1479   1.400       .  A
C1478      H1487   1.084       .  S
C1479      C1480   1.416       .  A
C1479      S1483   1.804       .  S
C1480      C1481   1.403   1_455  A
C1481      C1482   1.397       .  A
C1481      H1488   1.084       .  S
C1482      S1484   1.803       .  S
S1483      H1486   1.406       .  S
S1484      H1485   1.406       .  S
C1489      C1490   1.403   1_556  A
C1489      C1494   1.415       .  A
C1490      C1491   1.402       .  A
C1490      H1499   1.084       .  S
C1491      C1492   1.413   1_554  A
C1491      S1495   1.800       .  S
C1492      C1493   1.401       .  A
C1493      C1494   1.398       .  A
C1493      H1500   1.084       .  S
C1494      S1496   1.805       .  S
S1495      H1498   1.406       .  S
S1496      H1497   1.407       .  S
C1501      C1502   1.401   1_556  A
C1501      C1506   1.416       .  A
C1502      C1503   1.392       .  A
C1502      H1511   1.084       .  S
C1503      C1504   1.410   1_554  A
C1503      S1507   1.795       .  S
C1504      C1505   1.406       .  A
C1505      C1506   1.407       .  A
C1505      H1512   1.083       .  S
C1506      S1508   1.802       .  S
S1507      H1510   1.406       .  S
S1508      H1509   1.406       .  S
C1513      C1514   1.404       .  A
C1513      C1518   1.416   1_556  A
C1514      C1515   1.396       .  A
C1514      H1523   1.084       .  S
C1515      C1516   1.411       .  A
C1515      S1519   1.804       .  S
C1516      C1517   1.404   1_556  A
C1517      C1518   1.404       .  A
C1517      H1524   1.083       .  S
C1518      S1520   1.803       .  S
S1519      H1522   1.403       .  S
S1520      H1521   1.406       .  S
C1525      C1526   1.405       .  A
C1525      C1530   1.416   1_556  A
C1526      C1527   1.400       .  A
C1526      H1535   1.084       .  S
C1527      C1528   1.415       .  A
C1527      S1531   1.804       .  S
C1528      C1529   1.404   1_556  A
C1529      C1530   1.401       .  A
C1529      H1536   1.084       .  S
C1530      S1532   1.804       .  S
S1531      H1534   1.406       .  S
S1532      H1533   1.407       .  S
C1537      C1538   1.403   1_556  A
C1537      C1542   1.409       .  A
C1538      C1539   1.404       .  A
C1538      H1547   1.083       .  S
C1539      C1540   1.414   1_554  A
C1539      S1543   1.803       .  S
C1540      C1541   1.402       .  A
C1541      C1542   1.393       .  A
C1541      H1548   1.084       .  S
C1542      S1544   1.798       .  S
S1543      H1546   1.406       .  S
S1544      H1545   1.406       .  S
C1549      C1550   1.404       .  A
C1549      C1554   1.414       .  A
C1550      C1551   1.390       .  A
C1550      H1559   1.084       .  S
C1551      C1552   1.413       .  A
C1551      S1555   1.801       .  S
C1552      C1553   1.406       .  A
C1553      C1554   1.408       .  A
C1553      H1560   1.083       .  S
C1554      S1556   1.806       .  S
S1555      H1558   1.408       .  S
S1556      H1557   1.407       .  S
C1561      C1562   1.403       .  A
C1561      C1566   1.416       .  A
C1562      C1563   1.389       .  A
C1562      H1571   1.084       .  S
C1563      C1564   1.411       .  A
C1563      S1567   1.798       .  S
C1564      C1565   1.406       .  A
C1565      C1566   1.407       .  A
C1565      H1572   1.083       .  S
C1566      S1568   1.802       .  S
S1567      H1570   1.402       .  S
S1568      H1569   1.406       .  S
C1573      C1574   1.404       .  A
C1573      C1578   1.417       .  A
C1574      C1575   1.395       .  A
C1574      H1583   1.084       .  S
C1575      C1576   1.412       .  A
C1575      S1579   1.804       .  S
C1576      C1577   1.401       .  A
C1577      C1578   1.401       .  A
C1577      H1584   1.084       .  S
C1578      S1580   1.803       .  S
S1579      H1582   1.405       .  S
S1580      H1581   1.407       .  S
C1585      C1586   1.407       .  A
C1585      C1590   1.414       .  A
C1586      C1587   1.403       .  A
C1586      H1595   1.083       .  S
C1587      C1588   1.418       .  A
C1587      S1591   1.804       .  S
C1588      C1589   1.403       .  A
C1589      C1590   1.391       .  A
C1589      H1596   1.082       .  S
C1590      S1592   1.807       .  S
S1591      H1594   1.395       .  S
S1592      H1593   1.407       .  S
C1597      C1598   1.404       .  A
C1597      C1602   1.413       .  A
C1598      C1599   1.400       .  A
C1598      H1607   1.084       .  S
C1599      C1600   1.413       .  A
C1599      S1603   1.804       .  S
C1600      C1601   1.401       .  A
C1601      C1602   1.395       .  A
C1601      H1608   1.084       .  S
C1602      S1604   1.804       .  S
S1603      H1606   1.406       .  S
S1604      H1605   1.406       .  S
C1609      C1610   1.405       .  A
C1609      C1614   1.416       .  A
C1610      C1611   1.396       .  A
C1610      H1619   1.084       .  S
C1611      C1612   1.414       .  A
C1611      S1615   1.806       .  S
C1612      C1613   1.405       .  A
C1613      C1614   1.404       .  A
C1613      H1620   1.084       .  S
C1614      S1616   1.803       .  S
S1615      H1618   1.401       .  S
S1616      H1617   1.406       .  S
C1621      C1622   1.402       .  A
C1621      C1626   1.412       .  A
C1622      C1623   1.403       .  A
C1622      H1631   1.084       .  S
C1623      C1624   1.419       .  A
C1623      S1627   1.808       .  S
C1624      C1625   1.402       .  A
C1625      C1626   1.397       .  A
C1625      H1632   1.084       .  S
C1626      S1628   1.805       .  S
S1627      H1630   1.396       .  S
S1628      H1629   1.407       .  S
C1633      C1634   1.402       .  A
C1633      C1638   1.413       .  A
C1634      C1635   1.401       .  A
C1634      H1643   1.084       .  S
C1635      C1636   1.412       .  A
C1635      S1639   1.799       .  S
C1636      C1637   1.402       .  A
C1637      C1638   1.399       .  A
C1637      H1644   1.084       .  S
C1638      S1640   1.804       .  S
S1639      H1642   1.406       .  S
S1640      H1641   1.407       .  S
C1645      C1646   1.402       .  A
C1645      C1650   1.413       .  A
C1646      C1647   1.399       .  A
C1646      H1655   1.084       .  S
C1647      C1648   1.414       .  A
C1647      S1651   1.805       .  S
C1648      C1649   1.404       .  A
C1649      C1650   1.402       .  A
C1649      H1656   1.084       .  S
C1650      S1652   1.802       .  S
S1651      H1654   1.407       .  S
S1652      H1653   1.406       .  S
C1657      C1658   1.403       .  A
C1657      C1662   1.412       .  A
C1658      C1659   1.402       .  A
C1658      H1667   1.084       .  S
C1659      C1660   1.414       .  A
C1659      S1663   1.806       .  S
C1660      C1661   1.402       .  A
C1661      C1662   1.401       .  A
C1661      H1668   1.084       .  S
C1662      S1664   1.805       .  S
S1663      H1666   1.403       .  S
S1664      H1665   1.404       .  S
C1669      C1670   1.406   1_545  A
C1669      C1674   1.414       .  A
C1670      C1671   1.404       .  A
C1670      H1679   1.084       .  S
C1671      C1672   1.415   1_565  A
C1671      S1675   1.805       .  S
C1672      C1673   1.401       .  A
C1673      C1674   1.395       .  A
C1673      H1680   1.085       .  S
C1674      S1676   1.803       .  S
S1675      H1678   1.401       .  S
S1676      H1677   1.407       .  S
C1681      C1682   1.402       .  A
C1681      C1686   1.410   1_545  A
C1682      C1683   1.401       .  A
C1682      H1691   1.084       .  S
C1683      C1684   1.413       .  A
C1683      S1687   1.801       .  S
C1684      C1685   1.402   1_545  A
C1685      C1686   1.398       .  A
C1685      H1692   1.080       .  S
C1686      S1688   1.804       .  S
S1687      H1690   1.403       .  S
S1688      H1689   1.404       .  S
C1693      C1694   1.402       .  A
C1693      C1698   1.415   1_545  A
C1694      C1695   1.395       .  A
C1694      H1703   1.084       .  S
C1695      C1696   1.410       .  A
C1695      S1699   1.795       .  S
C1696      C1697   1.404   1_545  A
C1697      C1698   1.405       .  A
C1697      H1704   1.083       .  S
C1698      S1700   1.803       .  S
S1699      H1702   1.406       .  S
S1700      H1701   1.406       .  S
C1705      C1706   1.403       .  A
C1705      C1710   1.414   1_545  A
C1706      C1707   1.400       .  A
C1706      H1715   1.084       .  S
C1707      C1708   1.413       .  A
C1707      S1711   1.804       .  S
C1708      C1709   1.402   1_545  A
C1709      C1710   1.400       .  A
C1709      H1716   1.084       .  S
C1710      S1712   1.804       .  S
S1711      H1714   1.406       .  S
S1712      H1713   1.407       .  S
C1717      C1718   1.406       .  A
C1717      C1722   1.415   1_655  A
C1718      C1719   1.410       .  A
C1718      H1727   1.082       .  S
C1719      C1720   1.419       .  A
C1719      S1723   1.806       .  S
C1720      C1721   1.405   1_655  A
C1721      C1722   1.389       .  A
C1721      H1728   1.082       .  S
C1722      S1724   1.803       .  S
S1723      H1726   1.407       .  S
S1724      H1725   1.408   1_455  S
C1729      C1730   1.403   1_455  A
C1729      C1734   1.415       .  A
C1730      C1731   1.403       .  A
C1730      H1739   1.084       .  S
C1731      C1732   1.414       .  A
C1731      S1735   1.803       .  S
C1732      C1733   1.400   1_655  A
C1733      C1734   1.393       .  A
C1733      H1740   1.085       .  S
C1734      S1736   1.806       .  S
S1735      H1738   1.405       .  S
S1736      H1737   1.407       .  S
C1741      C1742   1.404   1_455  A
C1741      C1746   1.410       .  A
C1742      C1743   1.404       .  A
C1742      H1751   1.084       .  S
C1743      C1744   1.413   1_655  A
C1743      S1747   1.803       .  S
C1744      C1745   1.399       .  A
C1745      C1746   1.391       .  A
C1745      H1752   1.082       .  S
C1746      S1748   1.802       .  S
S1747      H1750   1.403       .  S
S1748      H1749   1.406       .  S
C1753      C1754   1.401       .  A
C1753      C1758   1.418   1_455  A
C1754      C1755   1.391       .  A
C1754      H1763   1.083       .  S
C1755      C1756   1.415       .  A
C1755      S1759   1.801       .  S
C1756      C1757   1.408   1_455  A
C1757      C1758   1.405       .  A
C1757      H1764   1.083       .  S
C1758      S1760   1.805       .  S
S1759      H1762   1.407       .  S
S1760      H1761   1.394       .  S
C1765      C1766   1.403   1_455  A
C1765      C1770   1.415       .  A
C1766      C1767   1.396       .  A
C1766      H1775   1.084       .  S
C1767      C1768   1.413   1_655  A
C1767      S1771   1.804       .  S
C1768      C1769   1.404       .  A
C1769      C1770   1.400       .  A
C1769      H1776   1.084       .  S
C1770      S1772   1.804       .  S
S1771      H1774   1.406       .  S
S1772      H1773   1.406       .  S
C1777      C1778   1.400       .  A
C1777      C1782   1.412   1_545  A
C1778      C1779   1.398       .  A
C1778      H1787   1.084       .  S
C1779      C1780   1.413       .  A
C1779      S1783   1.803       .  S
C1780      C1781   1.403   1_545  A
C1781      C1782   1.401       .  A
C1781      H1788   1.084       .  S
C1782      S1784   1.802       .  S
S1783      H1786   1.406       .  S
S1784      H1785   1.403       .  S
C1789      C1790   1.407       .  A
C1789      C1794   1.414       .  A
C1790      C1791   1.404       .  A
C1790      H1799   1.084       .  S
C1791      C1792   1.413       .  A
C1791      S1795   1.802       .  S
C1792      C1793   1.403       .  A
C1793      C1794   1.395       .  A
C1793      H1800   1.085       .  S
C1794      S1796   1.806       .  S
S1795      H1798   1.407       .  S
S1796      H1797   1.407       .  S
C1801      C1802   1.403       .  A
C1801      C1806   1.416       .  A
C1802      C1803   1.395       .  A
C1802      H1811   1.084       .  S
C1803      C1804   1.411       .  A
C1803      S1807   1.798       .  S
C1804      C1805   1.403       .  A
C1805      C1806   1.404       .  A
C1805      H1812   1.083       .  S
C1806      S1808   1.803       .  S
S1807      H1810   1.407       .  S
S1808      H1809   1.407       .  S
C1813      C1814   1.406       .  A
C1813      C1818   1.415       .  A
C1814      C1815   1.402       .  A
C1814      H1823   1.084       .  S
C1815      C1816   1.413       .  A
C1815      S1819   1.803       .  S
C1816      C1817   1.401       .  A
C1817      C1818   1.397       .  A
C1817      H1824   1.084       .  S
C1818      S1820   1.805       .  S
S1819      H1822   1.404       .  S
S1820      H1821   1.407       .  S
C1825      C1826   1.404       .  A
C1825      C1830   1.411       .  A
C1826      C1827   1.409       .  A
C1826      H1835   1.083       .  S
C1827      C1828   1.416       .  A
C1827      S1831   1.806       .  S
C1828      C1829   1.402       .  A
C1829      C1830   1.393       .  A
C1829      H1836   1.084       .  S
C1830      S1832   1.796       .  S
S1831      H1834   1.407       .  S
S1832      H1833   1.405       .  S
C1837      C1838   1.405       .  A
C1837      C1842   1.417       .  A
C1838      C1839   1.398       .  A
C1838      H1847   1.084       .  S
C1839      C1840   1.413       .  A
C1839      S1843   1.804       .  S
C1840      C1841   1.403       .  A
C1841      C1842   1.400       .  A
C1841      H1848   1.084       .  S
C1842      S1844   1.804       .  S
S1843      H1846   1.406       .  S
S1844      H1845   1.406       .  S
C1849      C1850   1.405   1_655  A
C1849      C1854   1.413       .  A
C1850      C1851   1.404       .  A
C1850      H1859   1.084       .  S
C1851      C1852   1.417   1_455  A
C1851      S1855   1.802       .  S
C1852      C1853   1.406       .  A
C1853      C1854   1.391       .  A
C1853      H1860   1.082       .  S
C1854      S1856   1.807       .  S
S1855      H1858   1.406       .  S
S1856      H1857   1.401       .  S
C1861      C1862   1.404   1_655  A
C1861      C1866   1.415       .  A
C1862      C1863   1.402       .  A
C1862      H1871   1.083       .  S
C1863      C1864   1.415   1_455  A
C1863      S1867   1.797       .  S
C1864      C1865   1.401       .  A
C1865      C1866   1.393       .  A
C1865      H1872   1.084       .  S
C1866      S1868   1.805       .  S
S1867      H1870   1.407       .  S
S1868      H1869   1.407       .  S
C1873      C1874   1.403       .  A
C1873      C1878   1.417   1_655  A
C1874      C1875   1.391       .  A
C1874      H1883   1.084       .  S
C1875      C1876   1.417       .  A
C1875      S1879   1.805       .  S
C1876      C1877   1.404   1_655  A
C1877      C1878   1.404       .  A
C1877      H1884   1.084       .  S
C1878      S1880   1.799       .  S
S1879      H1882   1.391       .  S
S1880      H1881   1.406       .  S
C1885      C1886   1.404       .  A
C1885      C1890   1.416   1_455  A
C1886      C1887   1.393       .  A
C1886      H1895   1.084       .  S
C1887      C1888   1.414       .  A
C1887      S1891   1.806       .  S
C1888      C1889   1.404   1_455  A
C1889      C1890   1.402       .  A
C1889      H1896   1.083       .  S
C1890      S1892   1.803       .  S
S1891      H1894   1.396       .  S
S1892      H1893   1.407       .  S
C1897      C1898   1.404       .  A
C1897      C1902   1.412   1_655  A
C1898      C1899   1.401       .  A
C1898      H1907   1.084       .  S
C1899      C1900   1.414       .  A
C1899      S1903   1.803       .  S
C1900      C1901   1.403   1_655  A
C1901      C1902   1.396       .  A
C1901      H1908   1.084       .  S
C1902      S1904   1.802       .  S
S1903      H1906   1.406       .  S
S1904      H1905   1.406       .  S
C1909      C1910   1.403   1_545  A
C1909      C1914   1.410       .  A
C1910      C1911   1.405       .  A
C1910      H1919   1.084       .  S
C1911      C1912   1.415   1_565  A
C1911      S1915   1.803       .  S
C1912      C1913   1.401       .  A
C1913      C1914   1.395       .  A
C1913      H1920   1.084       .  S
C1914      S1916   1.797       .  S
S1915      H1918   1.405       .  S
S1916      H1917   1.406       .  S
C1921      C1922   1.402   1_545  A
C1921      C1926   1.414       .  A
C1922      C1923   1.400       .  A
C1922      H1931   1.084       .  S
C1923      C1924   1.411   1_565  A
C1923      S1927   1.794       .  S
C1924      C1925   1.403       .  A
C1925      C1926   1.400       .  A
C1925      H1932   1.084       .  S
C1926      S1928   1.804       .  S
S1927      H1930   1.407       .  S
S1928      H1929   1.406       .  S
C1933      C1934   1.405       .  A
C1933      C1938   1.415   1_545  A
C1934      C1935   1.403       .  A
C1934      H1943   1.083       .  S
C1935      C1936   1.414       .  A
C1935      S1939   1.799       .  S
C1936      C1937   1.402   1_545  A
C1937      C1938   1.397       .  A
C1937      H1944   1.084       .  S
C1938      S1940   1.805       .  S
S1939      H1942   1.406       .  S
S1940      H1941   1.407       .  S
C1945      C1946   1.404   1_545  A
C1945      C1950   1.414       .  A
C1946      C1947   1.402       .  A
C1946      H1955   1.083       .  S
C1947      C1948   1.413   1_565  A
C1947      S1951   1.803       .  S
C1948      C1949   1.402       .  A
C1949      C1950   1.398       .  A
C1949      H1956   1.084       .  S
C1950      S1952   1.805       .  S
S1951      H1954   1.406       .  S
S1952      H1953   1.407       .  S
C1957      C1958   1.404       .  A
C1957      C1962   1.415   1_545  A
C1958      C1959   1.400       .  A
C1958      H1967   1.084       .  S
C1959      C1960   1.413       .  A
C1959      S1963   1.804       .  S
C1960      C1961   1.403   1_545  A
C1961      C1962   1.402       .  A
C1961      H1968   1.084       .  S
C1962      S1964   1.804       .  S
S1963      H1966   1.406       .  S
S1964      H1965   1.406       .  S
C1969      C1970   1.403       .  A
C1969      C1974   1.412   1_556  A
C1970      C1971   1.403       .  A
C1970      H1979   1.084       .  S
C1971      C1972   1.417       .  A
C1971      S1975   1.807       .  S
C1972      C1973   1.401   1_556  A
C1973      C1974   1.397       .  A
C1973      H1980   1.084       .  S
C1974      S1976   1.805       .  S
S1975      H1978   1.398       .  S
S1976      H1977   1.407       .  S
C1981      C1982   1.402       .  A
C1981      C1986   1.414   1_556  A
C1982      C1983   1.396       .  A
C1982      H1991   1.084       .  S
C1983      C1984   1.411       .  A
C1983      S1987   1.802       .  S
C1984      C1985   1.403   1_556  A
C1985      C1986   1.403       .  A
C1985      H1992   1.084       .  S
C1986      S1988   1.803       .  S
S1987      H1990   1.404       .  S
S1988      H1989   1.406       .  S
C1993      C1994   1.404   1_556  A
C1993      C1998   1.410       .  A
C1994      C1995   1.403       .  A
C1994      H2003   1.085       .  S
C1995      C1996   1.413   1_554  A
C1995      S1999   1.803       .  S
C1996      C1997   1.401       .  A
C1997      C1998   1.394       .  A
C1997      H2004   1.081       .  S
C1998      S2000   1.805       .  S
S1999      H2002   1.405       .  S
S2000      H2001   1.406       .  S
C2005      C2006   1.404   1_556  A
C2005      C2010   1.415       .  A
C2006      C2007   1.395       .  A
C2006      H2015   1.084       .  S
C2007      C2008   1.414   1_554  A
C2007      S2011   1.806       .  S
C2008      C2009   1.404       .  A
C2009      C2010   1.403       .  A
C2009      H2016   1.084       .  S
C2010      S2012   1.803       .  S
S2011      H2014   1.401       .  S
S2012      H2013   1.407       .  S
C2017      C2018   1.403   1_556  A
C2017      C2022   1.414       .  A
C2018      C2019   1.400       .  A
C2018      H2027   1.084       .  S
C2019      C2020   1.413   1_554  A
C2019      S2023   1.804       .  S
C2020      C2021   1.403       .  A
C2021      C2022   1.400       .  A
C2021      H2028   1.084       .  S
C2022      S2024   1.805       .  S
S2023      H2026   1.406       .  S
S2024      H2025   1.407       .  S
C2029      C2030   1.402       .  A
C2029      C2034   1.411       .  A
C2030      C2031   1.401       .  A
C2030      H2039   1.084       .  S
C2031      C2032   1.414       .  A
C2031      S2035   1.804       .  S
C2032      C2033   1.401       .  A
C2033      C2034   1.397       .  A
C2033      H2040   1.082       .  S
C2034      S2036   1.804       .  S
S2035      H2038   1.402       .  S
S2036      H2037   1.405       .  S
C2041      C2042   1.402       .  A
C2041      C2046   1.412       .  A
C2042      C2043   1.401       .  A
C2042      H2051   1.084       .  S
C2043      C2044   1.411       .  A
C2043      S2047   1.802       .  S
C2044      C2045   1.400       .  A
C2045      C2046   1.398       .  A
C2045      H2052   1.082       .  S
C2046      S2048   1.804       .  S
S2047      H2050   1.404       .  S
S2048      H2049   1.405       .  S
C2053      C2054   1.402       .  A
C2053      C2058   1.412       .  A
C2054      C2055   1.401       .  A
C2054      H2063   1.084       .  S
C2055      C2056   1.412       .  A
C2055      S2059   1.803       .  S
C2056      C2057   1.401       .  A
C2057      C2058   1.400       .  A
C2057      H2064   1.084       .  S
C2058      S2060   1.804       .  S
S2059      H2062   1.405       .  S
S2060      H2061   1.405       .  S
C2065      C2066   1.402       .  A
C2065      C2070   1.411       .  A
C2066      C2067   1.401       .  A
C2066      H2075   1.084       .  S
C2067      C2068   1.413       .  A
C2067      S2071   1.804       .  S
C2068      C2069   1.402       .  A
C2069      C2070   1.398       .  A
C2069      H2076   1.084       .  S
C2070      S2072   1.804       .  S
S2071      H2074   1.403       .  S
S2072      H2073   1.406       .  S
C2077      C2078   1.403       .  A
C2077      C2082   1.414       .  A
C2078      C2079   1.401       .  A
C2078      H2087   1.084       .  S
C2079      C2080   1.414       .  A
C2079      S2083   1.804       .  S
C2080      C2081   1.403       .  A
C2081      C2082   1.399       .  A
C2081      H2088   1.084       .  S
C2082      S2084   1.804       .  S
S2083      H2086   1.406       .  S
S2084      H2085   1.406       .  S
C2089      C2090   1.401       .  A
C2089      C2094   1.412       .  A
C2090      C2091   1.396       .  A
C2090      H2099   1.084       .  S
C2091      C2092   1.415       .  A
C2091      S2095   1.806       .  S
C2092      C2093   1.405       .  A
C2093      C2094   1.403       .  A
C2093      H2100   1.084       .  S
C2094      S2096   1.804       .  S
S2095      H2098   1.395       .  S
S2096      H2097   1.406       .  S
C2101      C2102   1.402       .  A
C2101      C2106   1.409       .  A
C2102      C2103   1.401       .  A
C2102      H2111   1.084       .  S
C2103      C2104   1.414       .  A
C2103      S2107   1.803       .  S
C2104      C2105   1.401       .  A
C2105      C2106   1.393       .  A
C2105      H2112   1.078       .  S
C2106      S2108   1.805       .  S
S2107      H2110   1.400       .  S
S2108      H2109   1.406       .  S
C2113      C2114   1.405       .  A
C2113      C2118   1.417       .  A
C2114      C2115   1.396       .  A
C2114      H2123   1.084       .  S
C2115      C2116   1.413       .  A
C2115      S2119   1.805       .  S
C2116      C2117   1.403       .  A
C2117      C2118   1.403       .  A
C2117      H2124   1.084       .  S
C2118      S2120   1.803       .  S
S2119      H2122   1.402       .  S
S2120      H2121   1.406       .  S
C2125      C2126   1.400       .  A
C2125      C2130   1.411       .  A
C2126      C2127   1.399       .  A
C2126      H2135   1.084       .  S
C2127      C2128   1.414       .  A
C2127      S2131   1.804       .  S
C2128      C2129   1.401       .  A
C2129      C2130   1.397       .  A
C2129      H2136   1.084       .  S
C2130      S2132   1.804       .  S
S2131      H2134   1.402       .  S
S2132      H2133   1.405       .  S
C2137      C2138   1.404       .  A
C2137      C2142   1.412       .  A
C2138      C2139   1.399       .  A
C2138      H2147   1.083       .  S
C2139      C2140   1.412       .  A
C2139      S2143   1.804       .  S
C2140      C2141   1.403       .  A
C2141      C2142   1.399       .  A
C2141      H2148   1.083       .  S
C2142      S2144   1.804       .  S
S2143      H2146   1.406       .  S
S2144      H2145   1.406       .  S
C2149      C2150   1.407       .  A
C2149      C2154   1.414       .  A
C2150      C2151   1.404       .  A
C2150      H2159   1.083       .  S
C2151      C2152   1.413       .  A
C2151      S2155   1.798       .  S
C2152      C2153   1.400       .  A
C2153      C2154   1.394       .  A
C2153      H2160   1.080       .  S
C2154      S2156   1.810       .  S
S2155      H2158   1.407       .  S
S2156      H2157   1.407       .  S
C2161      C2162   1.404       .  A
C2161      C2166   1.415       .  A
C2162      C2163   1.391       .  A
C2162      H2171   1.082       .  S
C2163      C2164   1.413       .  A
C2163      S2167   1.807       .  S
C2164      C2165   1.406       .  A
C2165      C2166   1.404       .  A
C2165      H2172   1.083       .  S
C2166      S2168   1.803       .  S
S2167      H2170   1.401       .  S
S2168      H2169   1.406       .  S
C2173      C2174   1.402       .  A
C2173      C2178   1.416       .  A
C2174      C2175   1.392       .  A
C2174      H2183   1.084       .  S
C2175      C2176   1.416       .  A
C2175      S2179   1.805       .  S
C2176      C2177   1.404       .  A
C2177      C2178   1.408       .  A
C2177      H2184   1.082       .  S
C2178      S2180   1.807       .  S
S2179      H2182   1.392       .  S
S2180      H2181   1.407       .  S
C2185      C2186   1.406       .  A
C2185      C2190   1.416       .  A
C2186      C2187   1.402       .  A
C2186      H2195   1.083       .  S
C2187      C2188   1.419       .  A
C2187      S2191   1.804       .  S
C2188      C2189   1.404       .  A
C2189      C2190   1.395       .  A
C2189      H2196   1.084       .  S
C2190      S2192   1.806       .  S
S2191      H2194   1.392       .  S
S2192      H2193   1.407       .  S
C2197      C2198   1.405       .  A
C2197      C2202   1.416       .  A
C2198      C2199   1.399       .  A
C2198      H2207   1.084       .  S
C2199      C2200   1.413       .  A
C2199      S2203   1.804       .  S
C2200      C2201   1.402       .  A
C2201      C2202   1.398       .  A
C2201      H2208   1.084       .  S
C2202      S2204   1.804       .  S
S2203      H2206   1.406       .  S
S2204      H2205   1.406       .  S
