geometry optimzed in LAMMPS
_audit_creation_date              2020-12-01 
_audit_creation_method            'lammps2cif' 
_symmetry_space_group_name_H-M    'P1' 
_symmetry_Int_Tables_number       1 
_symmetry_cell_setting            triclinic 
loop_ 
_symmetry_equiv_pos_as_xyz 
  x,y,z 
_cell_length_a                    29.53022099 
_cell_length_b                    29.568933100623877 
_cell_length_c                    29.398897229169435 
_cell_angle_alpha                 90.16729753432077 
_cell_angle_beta                  90.02024712003043 
_cell_angle_gamma                 89.92298738832817 
loop_ 
_atom_site_label 
_atom_site_type_symbol 
_atom_site_fract_x 
_atom_site_fract_y 
_atom_site_fract_z 
_atom_site_charge 
N1          N  0.60695574  0.55694020  0.92812907    -0.06700
N2          N  0.63482061  0.56279422  0.89360308    -0.58900
N3          N  0.57303952  0.58675884  0.03270472    -0.06400
N4          N  0.57754703  0.61330676  0.06858504    -0.61000
N5          N  0.60507480  0.55585201  0.03214521    -0.06000
N6          N  0.63232854  0.56078962  0.06724055    -0.58800
N7          N  0.57490091  0.58779328  0.92780924    -0.05700
N8          N  0.57987002  0.61506743  0.89278303    -0.61300
C9          C  0.61758560  0.59930799  0.87211771     0.95400
C10         C  0.61483623  0.59673820  0.08945208     0.95200
N11         N  0.43625751  0.55512434  0.03018820    -0.06900
N12         N  0.40722151  0.56148754  0.06375791    -0.59400
N13         N  0.46974072  0.58653955  0.92549061    -0.05100
N14         N  0.46591338  0.61273634  0.88943764    -0.60700
N15         N  0.43807803  0.55535097  0.92538226    -0.07000
N16         N  0.41167767  0.55984202  0.88949833    -0.59700
N17         N  0.46723180  0.58697502  0.03023668    -0.04700
N18         N  0.45987687  0.61591789  0.06357959    -0.60800
Mn19       Mn  0.52121193  0.58869417  0.97914242     1.18400
C20         C  0.42238426  0.59965161  0.08413209     0.97500
C21         C  0.42940762  0.59578940  0.86756753     0.98200
N22         N  0.60596170  0.45063784  0.03153413    -0.07000
N23         N  0.63294851  0.44595592  0.06691255    -0.63300
N24         N  0.57681145  0.41886428  0.92698036    -0.05800
N25         N  0.58422455  0.39035572  0.89326811    -0.64000
N26         N  0.60741006  0.45114735  0.92710147    -0.06500
N27         N  0.63603991  0.44571145  0.89312657    -0.63600
N28         N  0.57529911  0.41842459  0.03082855    -0.05400
N29         N  0.58107430  0.39073805  0.06547675    -0.64200
Mn30       Mn  0.60796894  0.50366763  0.97965251     1.10700
C31         C  0.61699977  0.40855537  0.08767346     0.98700
C32         C  0.62116651  0.40762029  0.87261446     0.98800
N33         N  0.43913064  0.45020403  0.92479080    -0.06500
N34         N  0.41157340  0.44491396  0.88990319    -0.61900
N35         N  0.46894315  0.41777954  0.02924801    -0.05800
N36         N  0.46248888  0.38953363  0.06325180    -0.58600
N37         N  0.43770300  0.44951881  0.02932642    -0.07100
N38         N  0.40953154  0.44385059  0.06357908    -0.61400
N39         N  0.47040976  0.41848343  0.92498478    -0.06100
N40         N  0.46455967  0.39055426  0.89040651    -0.58600
Mn41       Mn  0.43613709  0.50251759  0.97751906     1.20200
Mn42       Mn  0.52284485  0.41658916  0.97798289     1.10100
Cl43       Cl  0.52205050  0.50276065  0.97862124    -0.86600
C44         C  0.42792628  0.40771398  0.86892280     0.95700
C45         C  0.42551282  0.40644847  0.08442854     0.95500
N46         N  0.47340225  0.95562681  0.39079630    -0.06700
N47         N  0.46750925  0.92230659  0.36144335    -0.58900
N48         N  0.44225037  0.05899491  0.42591657    -0.06400
N49         N  0.41388288  0.09302745  0.42071020    -0.61000
N50         N  0.47332187  0.05935013  0.39392126    -0.06000
N51         N  0.46654108  0.09340989  0.36586228    -0.58800
N52         N  0.44145411  0.95526263  0.42194578    -0.05700
N53         N  0.41277308  0.92192450  0.41424841    -0.61300
C54         C  0.42967470  0.90167943  0.37663916     0.95400
C55         C  0.42959848  0.11421871  0.38328752     0.95200
N56         N  0.47279541  0.05470944  0.56437382    -0.06900
N57         N  0.46568447  0.08706473  0.59452880    -0.59400
N58         N  0.44157525  0.95220636  0.52855627    -0.05100
N59         N  0.41365796  0.91774967  0.53286811    -0.60700
N60         N  0.47234693  0.95161480  0.56089663    -0.07000
N61         N  0.46584871  0.91699326  0.58823872    -0.59700
N62         N  0.44177678  0.05588821  0.53229360    -0.04700
N63         N  0.41311611  0.08931899  0.53969820    -0.60800
Mn64       Mn  0.44021761  0.00561469  0.47718006     1.18400
C65         C  0.42830610  0.10825981  0.57872357     0.97500
C66         C  0.42937111  0.89618750  0.57009904     0.98200
N67         N  0.57940231  0.05902154  0.39524452    -0.07000
N68         N  0.58499545  0.09476673  0.36916851    -0.63300
N69         N  0.60988975  0.95349995  0.42351920    -0.05800
N70         N  0.63652635  0.91819078  0.41742510    -0.64000
N71         N  0.57903732  0.95538304  0.39132598    -0.06500
N72         N  0.58416634  0.92165670  0.36237062    -0.63600
N73         N  0.61121210  0.05719069  0.42648910    -0.05400
N74         N  0.63943164  0.09140902  0.42217704    -0.64200
Mn75       Mn  0.52636838  0.00746873  0.39119944     1.10700
C76         C  0.62264863  0.11439133  0.38628861     0.98700
C77         C  0.62023602  0.89901581  0.37899066     0.98800
N78         N  0.57809679  0.95011601  0.56113214    -0.06500
N79         N  0.58211539  0.91380392  0.58676673    -0.61900
N80         N  0.61044138  0.05492631  0.53239756    -0.05800
N81         N  0.63780333  0.08967613  0.53803222    -0.58600
N82         N  0.57935461  0.05425956  0.56441323    -0.07100
N83         N  0.58523032  0.08829806  0.59294862    -0.61400
N84         N  0.60996683  0.95085121  0.52993794    -0.06100
N85         N  0.63666548  0.91527560  0.53391339    -0.58600
Mn86       Mn  0.52575424  0.00271638  0.56441008     1.20200
Mn87       Mn  0.61208918  0.00403093  0.47813490     1.10100
Cl88       Cl  0.52608245  0.00498800  0.47774062    -0.86600
C89         C  0.61893217  0.89260791  0.56956620     0.95700
C90         C  0.62166284  0.11007492  0.57585632     0.95500
N91         N  0.97390503  0.56238613  0.39524180    -0.06700
N92         N  0.94054534  0.56829758  0.36608499    -0.58900
N93         N  0.07605009  0.59362170  0.43082682    -0.06400
N94         N  0.10915889  0.62307929  0.42564990    -0.61000
N95         N  0.07724071  0.56301394  0.39829906    -0.06000
N96         N  0.11077164  0.57128904  0.36994545    -0.58800
N97         N  0.97175580  0.59238328  0.42827483    -0.05700
N98         N  0.93661025  0.61934940  0.42234139    -0.61300
C99         C  0.91769541  0.60401983  0.38326487     0.95400
C100        C  0.13059030  0.60853317  0.38770748     0.95200
N101        N  0.07481030  0.55851653  0.56735983    -0.06900
N102        N  0.10956862  0.56387455  0.59514975    -0.59400
N103        N  0.96980812  0.58914828  0.53572908    -0.05100
N104        N  0.93320018  0.61432923  0.54085182    -0.60700
N105        N  0.97050438  0.55675320  0.56626089    -0.07000
N106        N  0.93426899  0.55869651  0.59236386    -0.59700
N107        N  0.07434028  0.59062533  0.53650297    -0.04700
N108        N  0.10902282  0.61809219  0.54209346    -0.60800
Mn109      Mn  0.02276351  0.59322415  0.48299076     1.18400
C110        C  0.13044429  0.60122428  0.57891247     0.97500
C111        C  0.91138970  0.59469626  0.57614324     0.98200
N112        N  0.07729039  0.45634575  0.39535127    -0.07000
N113        N  0.11131688  0.44974091  0.36709238    -0.63300
N114        N  0.97160544  0.42591018  0.42343031    -0.05800
N115        N  0.93619215  0.39963019  0.41700667    -0.64000
N116        N  0.97351837  0.45733716  0.39197568    -0.06500
N117        N  0.93957109  0.45295774  0.36310805    -0.63600
N118        N  0.07517301  0.42343574  0.42525836    -0.05400
N119        N  0.10749471  0.39351515  0.41787498    -0.64200
Mn120      Mn  0.02585129  0.50982325  0.39366500     1.10700
C121        C  0.12985586  0.41057706  0.38173053     0.98700
C122        C  0.91683671  0.41675113  0.37918574     0.98800
N123        N  0.97072371  0.45266366  0.56284835    -0.06500
N124        N  0.93590539  0.44687463  0.59024530    -0.61900
N125        N  0.07325510  0.42025363  0.53133846    -0.05800
N126        N  0.10582422  0.39030545  0.53716585    -0.58600
N127        N  0.07472877  0.45150752  0.56323662    -0.07100
N128        N  0.10867460  0.44378026  0.59131678    -0.61400
N129        N  0.96964791  0.42308073  0.52944130    -0.06100
N130        N  0.93400274  0.39659251  0.53318103    -0.58600
Mn131      Mn  0.02311894  0.50488262  0.56668944     1.20200
Mn132      Mn  0.02229161  0.42162368  0.47734671     1.10100
Cl133      Cl  0.02371164  0.50743852  0.48017607    -0.86600
C134        C  0.91322377  0.41203282  0.57107944     0.95700
C135        C  0.12748633  0.40548219  0.57461864     0.95500
C136        C  0.75379201  0.33717587  0.30888908     0.02500
C137        C  0.73563886  0.29832692  0.32901727    -0.13600
C138        C  0.69648505  0.27809336  0.31122325     0.00000
C139        C  0.67683531  0.29599842  0.27173740    -0.12200
C140        C  0.69561358  0.33384913  0.25032189     0.02500
C141        C  0.73384481  0.35453951  0.26940685    -0.11600
H142        H  0.75221348  0.28356470  0.35826792     0.08100
H143        H  0.64710494  0.28012147  0.25728566     0.05600
H144        H  0.74855281  0.38393567  0.25319558     0.05500
C145        C  0.75109493  0.67466449  0.30878159     0.02500
C146        C  0.72835167  0.65211918  0.27342936    -0.13600
C147        C  0.68921377  0.67085859  0.25399458     0.00000
C148        C  0.67204244  0.71167550  0.27093365    -0.12200
C149        C  0.69347656  0.73358909  0.30719611     0.02500
C150        C  0.73398843  0.71611907  0.32450993    -0.11600
H151        H  0.74134762  0.62029804  0.26048119     0.08100
H152        H  0.64266031  0.72709654  0.25525826     0.05600
H153        H  0.75253167  0.73527412  0.34982836     0.05500
C154        C  0.69960320  0.32939071  0.71203325     0.02500
C155        C  0.73812481  0.34857577  0.69233905    -0.13600
C156        C  0.75908982  0.32793831  0.65498102     0.00000
C157        C  0.74121769  0.28766935  0.63727815    -0.12200
C158        C  0.70250773  0.26816207  0.65660928     0.02500
C159        C  0.68172760  0.28935724  0.69386089    -0.11600
H160        H  0.75184415  0.37966377  0.70616304     0.08100
H161        H  0.75760431  0.27136000  0.60859867     0.05600
H162        H  0.65111970  0.27518140  0.70826907     0.05500
C163        C  0.34167656  0.74868457  0.29451876     0.02500
C164        C  0.36121684  0.72492223  0.25826714    -0.13600
C165        C  0.33972211  0.68667411  0.23969993     0.00000
C166        C  0.29863508  0.67215962  0.25868669    -0.12200
C167        C  0.27982592  0.69452281  0.29639683     0.02500
C168        C  0.30142810  0.73299604  0.31393164    -0.11600
H169        H  0.39325156  0.73641251  0.24457399     0.08100
H170        H  0.28152465  0.64297896  0.24462727     0.05600
H171        H  0.28729871  0.75037947  0.34318040     0.05500
C172        C  0.35418032  0.73534895  0.64859446     0.02500
C173        C  0.31516077  0.71596440  0.62971516    -0.13600
C174        C  0.29812565  0.67512510  0.64667131     0.00000
C175        C  0.32064238  0.65378214  0.68268802    -0.12200
C176        C  0.35941793  0.67310847  0.70222798     0.02500
C177        C  0.37613258  0.71384310  0.68484162    -0.11600
H178        H  0.29755464  0.73330694  0.60250393     0.08100
H179        H  0.30753532  0.62230180  0.69611183     0.05600
H180        H  0.40563331  0.72933086  0.69997839     0.05500
C181        C  0.34343313  0.32670190  0.71334069     0.02500
C182        C  0.36307803  0.28777410  0.69472502    -0.13600
C183        C  0.34316049  0.26612982  0.65717983     0.00000
C184        C  0.30289406  0.28375342  0.63893813    -0.12200
C185        C  0.28404188  0.32369965  0.65638284     0.02500
C186        C  0.30388598  0.34443767  0.69436129    -0.11600
H187        H  0.39434546  0.27492898  0.70908506     0.08100
H188        H  0.28658426  0.26695158  0.61056809     0.05600
H189        H  0.28860484  0.37440200  0.70917293     0.05500
C190        C  0.68360781  0.66734868  0.70117624     0.02500
C191        C  0.72137207  0.64602668  0.68152965    -0.13600
C192        C  0.74045718  0.66284484  0.64141266     0.00000
C193        C  0.71923461  0.69872070  0.61882699    -0.12200
C194        C  0.68282649  0.72171083  0.63899565     0.02500
C195        C  0.66598051  0.70642411  0.68083726    -0.11600
H196        H  0.73700372  0.61744415  0.69841454     0.08100
H197        H  0.73235729  0.70999968  0.58638404     0.05600
H198        H  0.64044283  0.72603233  0.69846983     0.05500
C199        C  0.34147597  0.26625633  0.29886962     0.02500
C200        C  0.30037080  0.28337939  0.31562853    -0.13600
C201        C  0.27924653  0.32022428  0.29430349     0.00000
C202        C  0.29867357  0.33860144  0.25496465    -0.12200
C203        C  0.34031969  0.32260525  0.23873857     0.02500
C204        C  0.36220319  0.28760647  0.26191707    -0.11600
H205        H  0.28543526  0.26871463  0.34580249     0.08100
H206        H  0.28172413  0.36606671  0.23750307     0.05600
H207        H  0.39573473  0.27709030  0.25131634     0.05500
C208        C  0.20553911  0.41008907  0.60345289    -0.26900
C209        C  0.16738093  0.38368196  0.59425857    -0.15000
C210        C  0.16787125  0.33712149  0.60385681     0.35600
C211        C  0.20620463  0.31787808  0.62420228    -0.26400
C212        C  0.24431608  0.34447089  0.63418339    -0.15600
C213        C  0.24436420  0.39066591  0.62236307     0.36700
N214        N  0.28424265  0.41759575  0.62822880    -0.89900
H215        H  0.20556324  0.44574881  0.59496904     0.17800
H216        H  0.20594662  0.28225755  0.63277842     0.17800
N217        N  0.12907076  0.30968191  0.59424528    -0.88900
H218        H  0.27606593  0.44504870  0.64917183     0.35200
H219        H  0.29365661  0.43021989  0.59642428     0.40300
H220        H  0.11823062  0.29510975  0.62471269     0.39900
H221        H  0.13916960  0.28359010  0.57239949     0.34800
C222        C  0.20660248  0.63317315  0.56621045    -0.26900
C223        C  0.17295847  0.61988683  0.59696791    -0.15000
C224        C  0.18030640  0.62469707  0.64403004     0.35600
C225        C  0.22150100  0.64276263  0.65941968    -0.26400
C226        C  0.25546229  0.65581024  0.62865589    -0.15600
C227        C  0.24814487  0.65043932  0.58150168     0.36700
N228        N  0.28316422  0.66158255  0.54946852    -0.89900
H229        H  0.20084265  0.62881802  0.53014944     0.17800
H230        H  0.22689850  0.64735737  0.69559991     0.17800
N231        N  0.14561562  0.61218594  0.67587464    -0.88900
H232        H  0.27225447  0.65562917  0.51615068     0.35200
H233        H  0.31036671  0.63967051  0.55525908     0.40300
H234        H  0.11798022  0.63369690  0.67063169     0.39900
H235        H  0.15654022  0.61772502  0.70926431     0.34800
C236        C  0.16615035  0.63881022  0.31835655    -0.26900
C237        C  0.16802148  0.63261190  0.36555326    -0.15000
C238        C  0.20563255  0.64890666  0.39019766     0.35600
C239        C  0.24113404  0.66976803  0.36705611    -0.26400
C240        C  0.23966379  0.67557230  0.31966772    -0.15600
C241        C  0.20114220  0.66103627  0.29520653     0.36700
N242        N  0.19751507  0.66926319  0.24716874    -0.89900
H243        H  0.13687227  0.62690551  0.29960102     0.17800
H244        H  0.27065890  0.68044939  0.38616375     0.17800
N245        N  0.20960285  0.64307683  0.43834365    -0.88900
H246        H  0.16708326  0.65637701  0.23440903     0.35200
H247        H  0.19639020  0.70428798  0.24251353     0.40300
H248        H  0.20677901  0.60861863  0.44569141     0.39900
H249        H  0.18306277  0.66044239  0.45413084     0.34800
C250        C  0.24024015  0.38979939  0.32051363    -0.26900
C251        C  0.23948460  0.34255372  0.31527942    -0.15000
C252        C  0.20203019  0.31777303  0.33153756     0.35600
C253        C  0.16705319  0.34068617  0.35430919    -0.26400
C254        C  0.16802421  0.38784404  0.35934668    -0.15600
C255        C  0.20475062  0.41275862  0.34213105     0.36700
N256        N  0.20635904  0.46108954  0.34756498    -0.89900
H257        H  0.26920084  0.40882988  0.30855784     0.17800
H258        H  0.13828204  0.32185938  0.36704730     0.17800
N259        N  0.19922869  0.26978138  0.32409029    -0.88900
H260        H  0.23557301  0.47429533  0.33256450     0.35200
H261        H  0.20870702  0.46802590  0.38238311     0.40300
H262        H  0.19722128  0.26438142  0.28898333     0.39900
H263        H  0.16943654  0.25679929  0.33811523     0.34800
C264        C  0.78966890  0.59876428  0.61701960    -0.26900
C265        C  0.78446767  0.64530134  0.62509639    -0.15000
C266        C  0.82231048  0.67424151  0.61988941     0.35600
C267        C  0.86305552  0.65678928  0.60352853    -0.26400
C268        C  0.86790305  0.61063665  0.59437354    -0.15600
C269        C  0.83117433  0.58105311  0.60236758     0.36700
N270        N  0.83467679  0.53326337  0.59487138    -0.89900
H271        H  0.76129854  0.57611025  0.62209223     0.17800
H272        H  0.89157036  0.67937211  0.59889312     0.17800
N273        N  0.82126272  0.72090797  0.63318479    -0.88900
H274        H  0.85923986  0.52020555  0.61681735     0.35200
H275        H  0.84499288  0.52763093  0.56131315     0.40300
H276        H  0.80979593  0.72313370  0.66676457     0.39900
H277        H  0.79922451  0.73863019  0.61201964     0.34800
C278        C  0.79947092  0.35528116  0.58631799    -0.26900
C279        C  0.79891197  0.34923182  0.63364852    -0.15000
C280        C  0.83589428  0.36419213  0.65994672     0.35600
C281        C  0.87221017  0.38574850  0.63873421    -0.26400
C282        C  0.87317154  0.39102016  0.59144146    -0.15600
C283        C  0.83658668  0.37556065  0.56475302     0.36700
N284        N  0.83644922  0.38185793  0.51628076    -0.89900
H285        H  0.77076540  0.34427341  0.56617049     0.17800
H286        H  0.90052701  0.39710951  0.65925796     0.17800
N287        N  0.83739235  0.35625250  0.70797595    -0.88900
H288        H  0.80545607  0.37171846  0.50240628     0.35200
H289        H  0.86076909  0.36011091  0.50246398     0.40300
H290        H  0.84073406  0.38747997  0.72440926     0.39900
H291        H  0.86630015  0.33706808  0.71506779     0.34800
C292        C  0.83774359  0.39313082  0.38880459    -0.26900
C293        C  0.87476142  0.39916036  0.35979344    -0.15000
C294        C  0.87171574  0.38638910  0.31375579     0.35600
C295        C  0.83195812  0.36556094  0.29815135    -0.26400
C296        C  0.79500601  0.35862443  0.32742694    -0.15600
C297        C  0.79766545  0.37379230  0.37304074     0.36700
N298        N  0.75983176  0.37204418  0.40351044    -0.89900
H299        H  0.83986249  0.40415415  0.42391150     0.17800
H300        H  0.82979565  0.35446077  0.26305011     0.17800
N301        N  0.90945318  0.39296094  0.28361559    -0.88900
H302        H  0.75175179  0.33844158  0.41036986     0.35200
H303        H  0.73211414  0.38774974  0.38802307     0.40300
H304        H  0.91362371  0.42778920  0.27935542     0.39900
H305        H  0.90223302  0.37982625  0.25136017     0.34800
C306        C  0.84276881  0.63994337  0.39259644    -0.26900
C307        C  0.87575620  0.62226051  0.36334275    -0.15000
C308        C  0.86759811  0.62093962  0.31604306     0.35600
C309        C  0.82664383  0.63810545  0.29901677    -0.26400
C310        C  0.79342210  0.65577028  0.32832372    -0.15600
C311        C  0.80126410  0.65570129  0.37578369     0.36700
N312        N  0.76668421  0.67051277  0.40685954    -0.89900
H313        H  0.84879121  0.64005376  0.42896331     0.17800
H314        H  0.82096580  0.63837504  0.26260682     0.17800
N315        N  0.90109177  0.60290937  0.28544218    -0.88900
H316        H  0.77791549  0.66834459  0.44051303     0.35200
H317        H  0.73937930  0.64824152  0.40377044     0.40300
H318        H  0.92939369  0.62406521  0.28698079     0.39900
H319        H  0.88945585  0.60388172  0.25185914     0.34800
C320        C  0.67519990  0.22527908  0.58933512    -0.26900
C321        C  0.68257615  0.22682966  0.63648564    -0.15000
C322        C  0.66993782  0.18960777  0.66367674     0.35600
C323        C  0.64879693  0.15225226  0.64321779    -0.26400
C324        C  0.64173392  0.15078797  0.59613138    -0.15600
C325        C  0.65496115  0.18753577  0.56881389     0.36700
N326        N  0.64690346  0.18675992  0.52056398    -0.89900
H327        H  0.68448862  0.25403010  0.56856783     0.17800
H328        H  0.63900551  0.12356541  0.66384816     0.17800
N329        N  0.67943981  0.18951438  0.71165554    -0.88900
H330        H  0.65884661  0.21639255  0.50541873     0.35200
H331        H  0.61184824  0.18631281  0.51554476     0.40300
H332        H  0.71462812  0.18998451  0.71559349     0.39900
H333        H  0.66801269  0.15958256  0.72659957     0.34800
C334        C  0.38230507  0.19179595  0.66547442    -0.26900
C335        C  0.36490111  0.22560754  0.63682431    -0.15000
C336        C  0.36940254  0.22061834  0.58926101     0.35600
C337        C  0.38958037  0.18163977  0.57139247    -0.26400
C338        C  0.40730832  0.14821707  0.59997082    -0.15600
C339        C  0.40392463  0.15358990  0.64764446     0.36700
N340        N  0.42082381  0.12039504  0.67874299    -0.89900
H341        H  0.37891359  0.19493040  0.70205237     0.17800
H342        H  0.39255368  0.17812141  0.53482892     0.17800
N343        N  0.35506599  0.25566657  0.55892112    -0.88900
H344        H  0.45591194  0.11800792  0.67490735     0.35200
H345        H  0.40618047  0.08917737  0.67082120     0.40300
H346        H  0.33134713  0.24192046  0.53638508     0.39900
H347        H  0.38312193  0.26605717  0.53997072     0.34800
C348        C  0.40477828  0.15571914  0.31498005    -0.26900
C349        C  0.40750509  0.15345676  0.36242872    -0.15000
C350        C  0.38812072  0.18793526  0.38917114     0.35600
C351        C  0.36667932  0.22451974  0.36799177    -0.26400
C352        C  0.36363232  0.22681191  0.32038843    -0.15600
C353        C  0.38225486  0.19154027  0.29377101     0.36700
N354        N  0.37715832  0.19120589  0.24529427    -0.89900
H355        H  0.41895913  0.12882742  0.29425733     0.17800
H356        H  0.35295681  0.25149518  0.38888052     0.17800
N357        N  0.39119385  0.18650091  0.43776634    -0.88900
H358        H  0.36012816  0.16160774  0.23601422     0.35200
H359        H  0.40944649  0.19017759  0.23073177     0.40300
H360        H  0.35832266  0.18725899  0.45095359     0.39900
H361        H  0.40795420  0.21566685  0.44879749     0.34800
C362        C  0.70636640  0.20201005  0.34596338    -0.26900
C363        C  0.67714990  0.23714329  0.33270490    -0.15000
C364        C  0.62994070  0.23221843  0.33903321     0.35600
C365        C  0.61295053  0.19132410  0.35581854    -0.26400
C366        C  0.64219875  0.15631920  0.36857075    -0.15600
C367        C  0.68936728  0.16176045  0.36431429     0.36700
N368        N  0.71968493  0.12600011  0.37743824    -0.89900
H369        H  0.74253187  0.20546803  0.34093145     0.17800
H370        H  0.57673769  0.18711462  0.36005906     0.17800
N371        N  0.59953282  0.26893982  0.32918234    -0.88900
H372        H  0.75337134  0.13565536  0.37248454     0.35200
H373        H  0.71380529  0.09853976  0.35575066     0.40300
H374        H  0.60719514  0.29538599  0.35156631     0.39900
H375        H  0.56600104  0.25966208  0.33567350     0.34800
C376        C  0.39765909  0.85528785  0.63545145    -0.26900
C377        C  0.40899965  0.85544035  0.58923161    -0.15000
C378        C  0.40149768  0.81653590  0.56244937     0.35600
C379        C  0.38376995  0.77781304  0.58273815    -0.26400
C380        C  0.37267659  0.77736061  0.62916598    -0.15600
C381        C  0.37881054  0.81699093  0.65555198     0.36700
N382        N  0.36426781  0.82016916  0.70196016    -0.89900
H383        H  0.40269113  0.88547043  0.65585920     0.17800
H384        H  0.37889853  0.74769428  0.56220269     0.17800
N385        N  0.41288401  0.81496074  0.51508177    -0.88900
H386        H  0.38329598  0.79812109  0.72193814     0.35200
H387        H  0.33016104  0.81090067  0.70370900     0.40300
H388        H  0.44714958  0.82306626  0.51148313     0.39900
H389        H  0.39357729  0.83914116  0.49791824     0.34800
C390        C  0.69687566  0.79670659  0.60346319    -0.26900
C391        C  0.66562356  0.76431628  0.61875222    -0.15000
C392        C  0.61881703  0.77385993  0.61623000     0.35600
C393        C  0.60449226  0.81642566  0.60084659    -0.26400
C394        C  0.63582578  0.84877798  0.58604626    -0.15600
C395        C  0.68246558  0.83869759  0.58675317     0.36700
N396        N  0.71505928  0.87148202  0.57167191    -0.89900
H397        H  0.73280947  0.78977462  0.60572357     0.17800
H398        H  0.56860717  0.82402844  0.59937881     0.17800
N399        N  0.58606354  0.74013649  0.62861696    -0.88900
H400        H  0.74792010  0.85845189  0.57391283     0.35200
H401        H  0.71354582  0.89901720  0.59401602     0.40300
H402        H  0.58946909  0.71314288  0.60581498     0.39900
H403        H  0.55313308  0.75256949  0.62470498     0.34800
C404        C  0.64523098  0.82037412  0.38884992    -0.26900
C405        C  0.63784355  0.85688609  0.35959878    -0.15000
C406        C  0.64759926  0.85244642  0.31279902     0.35600
C407        C  0.66615659  0.81208575  0.29653398    -0.26400
C408        C  0.67421435  0.77566338  0.32593567    -0.18300
C409        C  0.66237260  0.77955303  0.37240729     0.36700
N410        N  0.66538673  0.74219981  0.40320313    -0.89900
H411        H  0.63669593  0.82330327  0.42461213     0.17800
H412        H  0.67453809  0.80917092  0.26074714     0.17800
N413        N  0.64025377  0.88865166  0.28136916    -0.88900
H414        H  0.69925941  0.73314776  0.40726842     0.35200
H415        H  0.64764425  0.71484912  0.38935809     0.40300
H416        H  0.65794053  0.91708756  0.29284784     0.39900
H417        H  0.60569386  0.89622206  0.28068425     0.34800
C418        C  0.36636297  0.86853223  0.33324048    -0.26900
C419        C  0.40853318  0.86278110  0.35422410    -0.15000
C420        C  0.42953022  0.81993534  0.35399762     0.35600
C421        C  0.40733671  0.78325430  0.33387858    -0.26400
C422        C  0.36462104  0.78869232  0.31368684    -0.15600
C423        C  0.34446830  0.83206602  0.31243238     0.36700
N424        N  0.30265099  0.84026525  0.28910955    -0.89900
H425        H  0.35059435  0.90165679  0.33266610     0.17800
H426        H  0.42314297  0.75015629  0.33462444     0.17800
N427        N  0.47267122  0.81260895  0.37505145    -0.88900
H428        H  0.27705113  0.82135761  0.30441913     0.35200
H429        H  0.30621610  0.82949669  0.25538819     0.40300
H430        H  0.47029543  0.82207743  0.40926656     0.39900
H431        H  0.49648212  0.83344573  0.35926004     0.34800
C432        C  0.66851748  0.39920835  0.20483044    -0.26900
C433        C  0.67511176  0.35229528  0.20829358    -0.15000
C434        C  0.66242905  0.32390254  0.17166095     0.35600
C435        C  0.64209232  0.34299407  0.13309179    -0.26400
C436        C  0.63622454  0.38983981  0.12960859    -0.15600
C437        C  0.64956613  0.41834814  0.16565139     0.36700
N438        N  0.64316050  0.46648064  0.16260466    -0.89900
H439        H  0.67779663  0.42099422  0.23301981     0.17800
H440        H  0.63222430  0.32142649  0.10492081     0.17800
N441        N  0.67134505  0.27610097  0.17318456    -0.88900
H442        H  0.65512200  0.48261696  0.19192806     0.35200
H443        H  0.60831643  0.47266014  0.16119813     0.40300
H444        H  0.70647417  0.27173803  0.17415257     0.39900
H445        H  0.65995526  0.26021714  0.14349827     0.34800
C446        C  0.60594449  0.62068938  0.16939266    -0.26900
C447        C  0.63404786  0.61522654  0.13141472    -0.15000
C448        C  0.68026712  0.62687263  0.13428567     0.35600
C449        C  0.69728456  0.64459694  0.17477000    -0.26400
C450        C  0.66928811  0.65035273  0.21287205    -0.15600
C451        C  0.62320987  0.63747366  0.21034511     0.36700
N452        N  0.59380941  0.63905299  0.24909267    -0.89900
H453        H  0.57062234  0.61090246  0.16748392     0.17800
H454        H  0.73259227  0.65449542  0.17635321     0.17800
N455        N  0.71030938  0.62247756  0.09625733    -0.88900
H456        H  0.58946982  0.67254080  0.25943161     0.35200
H457        H  0.60892028  0.62092203  0.27554934     0.40300
H458        H  0.69679134  0.64055315  0.06890705     0.39900
H459        H  0.71254836  0.58835842  0.08722065     0.34800
C460        C  0.37853837  0.68937010  0.16475769    -0.26900
C461        C  0.35986928  0.66306617  0.19975205    -0.15000
C462        C  0.36109532  0.61527968  0.19593437     0.35600
C463        C  0.38028733  0.59530889  0.15699718    -0.26400
C464        C  0.40001716  0.62186028  0.12297741    -0.15600
C465        C  0.39896672  0.66935825  0.12672828     0.36700
N466        N  0.41796470  0.69717606  0.09153616    -0.89900
H467        H  0.37681341  0.72591370  0.16681160     0.17800
H468        H  0.38140975  0.55881300  0.15396102     0.17800
N469        N  0.34421913  0.58716675  0.23196086    -0.88900
H470        H  0.41496301  0.73145542  0.09985175     0.35200
H471        H  0.39873634  0.69208976  0.06209712     0.40300
H472        H  0.36451596  0.59276031  0.26056413     0.39900
H473        H  0.34750609  0.55293238  0.22357639     0.34800
C474        C  0.40333688  0.33849288  0.12744914    -0.26900
C475        C  0.40432384  0.38571806  0.12438319    -0.15000
C476        C  0.38437211  0.41235357  0.15879984     0.35600
C477        C  0.36343021  0.39098012  0.19568592    -0.26400
C478        C  0.36190408  0.34362440  0.19863886    -0.15600
C479        C  0.38160531  0.31705212  0.16381476     0.36700
N480        N  0.37869066  0.26852175  0.16500298    -0.89900
H481        H  0.41839573  0.31824957  0.10062571     0.17800
H482        H  0.34895259  0.41138794  0.22269690     0.17800
N483        N  0.38626646  0.46088943  0.15665331    -0.88900
H484        H  0.39506928  0.25414909  0.13693448     0.35200
H485        H  0.34449290  0.25979820  0.16234647     0.40300
H486        H  0.42028204  0.47036521  0.15914030     0.39900
H487        H  0.36972831  0.47534289  0.18458620     0.34800
C488        C  0.69609183  0.64374320  0.78107905    -0.26900
C489        C  0.66558714  0.65107227  0.74514482    -0.15000
C490        C  0.61910182  0.64109207  0.75156993     0.35600
C491        C  0.60434413  0.62507918  0.79365480    -0.26400
C492        C  0.63501809  0.61726083  0.82911731    -0.15600
C493        C  0.68141079  0.62648326  0.82266998     0.36700
N494        N  0.71412854  0.61973108  0.85800316    -0.89900
H495        H  0.73172024  0.65136546  0.77672630     0.17800
H496        H  0.56874288  0.61742226  0.79827663     0.17800
N497        N  0.58650541  0.64443070  0.71559385    -0.88900
H498        H  0.71494124  0.58540643  0.86627234     0.35200
H499        H  0.70397745  0.63813906  0.88666403     0.40300
H500        H  0.59829166  0.62609933  0.68753469     0.39900
H501        H  0.58246912  0.67821752  0.70640048     0.34800
C502        C  0.65157921  0.41534768  0.79503139    -0.26900
C503        C  0.64222566  0.38762108  0.83234032    -0.15000
C504        C  0.65183054  0.34105048  0.83044882     0.35600
C505        C  0.67025085  0.32276672  0.79056771    -0.26400
C506        C  0.67900335  0.35022307  0.75273476    -0.15600
C507        C  0.66915444  0.39696477  0.75473861     0.36700
N508        N  0.67605706  0.42526551  0.71565887    -0.89900
H509        H  0.64372828  0.45113191  0.79688315     0.17800
H510        H  0.67850009  0.28706150  0.78919064     0.17800
N511        N  0.64365633  0.31279685  0.86931267    -0.88900
H512        H  0.66711471  0.45874506  0.72292830     0.35200
H513        H  0.65406771  0.41411333  0.69011491     0.40300
H514        H  0.66513142  0.32369343  0.89541523     0.39900
H515        H  0.65253855  0.27926893  0.86221555     0.34800
C516        C  0.40749912  0.40941850  0.78756963    -0.26900
C517        C  0.40644341  0.38683927  0.82934930    -0.15000
C518        C  0.38365565  0.34528189  0.83343025     0.35600
C519        C  0.36275572  0.32646196  0.79498005    -0.26400
C520        C  0.36438100  0.34862381  0.75296969    -0.15600
C521        C  0.38688542  0.39054319  0.74920763     0.36700
N522        N  0.39019047  0.41395040  0.70673852    -0.89900
H523        H  0.42486160  0.44156633  0.78469149     0.17800
H524        H  0.34512772  0.29445135  0.79765985     0.17800
N525        N  0.38064481  0.32322169  0.87684026    -0.88900
H526        H  0.35756425  0.42182843  0.69553335     0.35200
H527        H  0.40527902  0.39233444  0.68294467     0.40300
H528        H  0.41325458  0.31288372  0.88596474     0.39900
H529        H  0.36112301  0.29384748  0.87430534     0.34800
C530        C  0.44099995  0.62302884  0.78895303    -0.26900
C531        C  0.41127758  0.61433164  0.82504127    -0.15000
C532        C  0.36488060  0.62435649  0.82052929     0.35600
C533        C  0.34933197  0.64430685  0.78029232    -0.26400
C534        C  0.37885729  0.65300754  0.74392458    -0.15600
C535        C  0.42522986  0.64147000  0.74815162     0.36700
N536        N  0.45658123  0.64586589  0.71122143    -0.89900
H537        H  0.47659250  0.61459295  0.79221180     0.17800
H538        H  0.31382467  0.65312843  0.77721160     0.17800
N539        N  0.33403210  0.61582654  0.85734846    -0.88900
H540        H  0.46125913  0.67996901  0.70372151     0.35200
H541        H  0.44324757  0.62943192  0.68268426     0.40300
H542        H  0.33078528  0.58078220  0.86046082     0.39900
H543        H  0.30169844  0.62797612  0.84950792     0.34800
loop_ 
_geom_bond_atom_site_label_1 
_geom_bond_atom_site_label_2 
_geom_bond_distance 
_geom_bond_site_symmetry_2 
_ccdc_geom_bond_type 
N1            N2   1.319       .  A
N1            N7   1.314       .  A
N1          Mn30   2.189       .  S
N2            C9   1.351       .  A
N3            N5   1.315       .  A
N3            N4   1.320       .  A
N3          Mn19   2.196   1_554  S
N4           C10   1.352       .  A
N5            N6   1.316       .  A
N5          Mn30   2.181   1_554  S
N6           C10   1.348       .  A
N7            N8   1.318       .  A
N7          Mn19   2.189       .  S
N8            C9   1.351       .  A
C9          C492   1.466       .  S
C10         C447   1.463       .  S
N11          N17   1.314       .  A
N11          N12   1.320       .  A
N11         Mn41   2.192   1_554  S
N12          C20   1.353       .  A
N13          N14   1.319       .  A
N13          N15   1.314       .  A
N13         Mn19   2.191       .  S
N14          C21   1.351       .  A
N15          N16   1.318       .  A
N15         Mn41   2.193       .  S
N16          C21   1.351       .  A
N17          N18   1.317       .  A
N17         Mn19   2.191   1_554  S
N18          C20   1.351       .  A
Mn19        Cl43   2.541       .  S
C20         C464   1.472       .  S
C21         C531   1.467       .  S
N22          N23   1.318       .  A
N22          N28   1.315       .  A
N22         Mn30   2.192   1_554  S
N23          C31   1.350       .  A
N24          N26   1.315       .  A
N24          N25   1.317       .  A
N24         Mn42   2.190       .  S
N25          C32   1.350       .  A
N26          N27   1.318       .  A
N26         Mn30   2.187       .  S
N27          C32   1.350       .  A
N28          N29   1.320       .  A
N28         Mn42   2.194   1_554  S
N29          C31   1.352       .  A
Mn30        Cl43   2.538       .  S
C31         C436   1.467       .  S
C32         C503   1.461       .  S
N33          N34   1.318       .  A
N33          N39   1.316       .  A
N33         Mn41   2.188       .  S
N34          C44   1.348       .  A
N35          N36   1.319       .  A
N35          N37   1.315       .  A
N35         Mn42   2.193   1_554  S
N36          C45   1.352       .  A
N37          N38   1.318       .  A
N37         Mn41   2.189   1_554  S
N38          C45   1.351       .  A
N39          N40   1.319       .  A
N39         Mn42   2.197       .  S
N40          C44   1.351       .  A
Mn41        Cl43   2.537       .  S
Mn42        Cl43   2.548       .  S
C44         C517   1.461       .  S
C45         C475   1.467       .  S
N46          N47   1.319       .  A
N46          N52   1.315       .  A
N46         Mn75   2.192   1_565  S
N47          C54   1.350       .  A
N48          N50   1.314       .  A
N48          N49   1.318       .  A
N48         Mn64   2.186       .  S
N49          C55   1.350       .  A
N50          N51   1.319       .  A
N50         Mn75   2.192       .  S
N51          C55   1.352       .  A
N52          N53   1.320       .  A
N52         Mn64   2.200   1_565  S
N53          C54   1.351       .  A
C54         C419   1.464       .  S
C55         C349   1.466       .  S
N56          N62   1.315       .  A
N56          N57   1.319       .  A
N56         Mn86   2.192       .  S
N57          C65   1.351       .  A
N58          N59   1.318       .  A
N58          N60   1.315       .  A
N58         Mn64   2.189   1_565  S
N59          C66   1.350       .  A
N60          N61   1.318       .  A
N60         Mn86   2.188   1_565  S
N61          C66   1.350       .  A
N62          N63   1.318       .  A
N62         Mn64   2.196       .  S
N63          C65   1.352       .  A
Mn64        Cl88   2.536       .  S
C65         C338   1.471       .  S
C66         C377   1.462       .  S
N67          N68   1.318       .  A
N67          N73   1.315       .  A
N67         Mn75   2.190       .  S
N68          C76   1.351       .  A
N69          N71   1.315       .  A
N69          N70   1.318       .  A
N69         Mn87   2.191   1_565  S
N70          C77   1.351       .  A
N71          N72   1.318       .  A
N71         Mn75   2.187   1_565  S
N72          C77   1.349       .  A
N73          N74   1.318       .  A
N73         Mn87   2.189       .  S
N74          C76   1.350       .  A
Mn75        Cl88   2.546       .  S
C76         C366   1.465       .  S
C77         C405   1.463       .  S
N78          N79   1.319       .  A
N78          N84   1.315       .  A
N78         Mn86   2.193   1_565  S
N79          C89   1.352       .  A
N80          N81   1.318       .  A
N80          N82   1.315       .  A
N80         Mn87   2.190       .  S
N81          C90   1.350       .  A
N82          N83   1.320       .  A
N82         Mn86   2.199       .  S
N83          C90   1.352       .  A
N84          N85   1.319       .  A
N84         Mn87   2.193   1_565  S
N85          C89   1.352       .  A
Mn86        Cl88   2.549       .  S
Mn87        Cl88   2.540       .  S
C89         C394   1.471       .  S
C90         C324   1.467       .  S
N91          N92   1.317       .  A
N91          N97   1.315       .  A
N91        Mn120   2.183   1_655  S
N92          C99   1.350       .  A
N93          N95   1.315       .  A
N93          N94   1.319       .  A
N93        Mn109   2.198       .  S
N94         C100   1.352       .  A
N95          N96   1.318       .  A
N95        Mn120   2.191       .  S
N96         C100   1.351       .  A
N97          N98   1.320       .  A
N97        Mn109   2.203   1_655  S
N98          C99   1.354       .  A
C99         C307   1.472       .  S
C100        C237   1.469       .  S
N101        N107   1.315       .  A
N101        N102   1.321       .  A
N101       Mn131   2.203       .  S
N102        C110   1.354       .  A
N103        N104   1.320       .  A
N103        N105   1.315       .  A
N103       Mn109   2.206   1_655  S
N104        C111   1.354       .  A
N105        N106   1.318       .  A
N105       Mn131   2.182   1_655  S
N106        C111   1.348       .  A
N107        N108   1.318       .  A
N107       Mn109   2.191       .  S
N108        C110   1.350       .  A
Mn109      Cl133   2.538       .  S
C110        C223   1.470       .  S
C111        C268   1.468       .  S
N112        N113   1.318       .  A
N112        N118   1.315       .  A
N112       Mn120   2.192       .  S
N113        C121   1.352       .  A
N114        N116   1.314       .  A
N114        N115   1.317       .  A
N114       Mn132   2.184   1_655  S
N115        C122   1.350       .  A
N116        N117   1.319       .  A
N116       Mn120   2.192   1_655  S
N117        C122   1.351       .  A
N118        N119   1.318       .  A
N118       Mn132   2.188       .  S
N119        C121   1.351       .  A
Mn120      Cl133   2.545       .  S
C121        C254   1.467       .  S
C122        C293   1.462       .  S
N123        N124   1.318       .  A
N123        N129   1.314       .  A
N123       Mn131   2.190   1_655  S
N124        C134   1.351       .  A
N125        N126   1.318       .  A
N125        N127   1.315       .  A
N125       Mn132   2.187       .  S
N126        C135   1.349       .  A
N127        N128   1.319       .  A
N127       Mn131   2.195       .  S
N128        C135   1.352       .  A
N129        N130   1.318       .  A
N129       Mn132   2.183   1_655  S
N130        C134   1.350       .  A
Mn131      Cl133   2.545       .  S
Mn132      Cl133   2.539       .  S
C134        C282   1.466       .  S
C135        C209   1.462       .  S
C136        C296   1.477       .  S
C136        C137   1.401       .  A
C136        C141   1.400       .  A
C137        C138   1.403       .  A
C137        H142   1.082       .  S
C138        C363   1.482       .  S
C138        C139   1.402       .  A
C139        C140   1.401       .  A
C139        H143   1.082       .  S
C140        C433   1.481       .  S
C140        C141   1.401       .  A
C141        H144   1.084       .  S
C145        C310   1.485       .  S
C145        C146   1.404       .  A
C145        C150   1.402       .  A
C146        C147   1.403       .  A
C146        H151   1.084       .  S
C147        C450   1.474       .  S
C147        C148   1.399       .  A
C148        C149   1.398       .  A
C148        H152   1.083       .  S
C149        C408   1.473       .  S
C149        C150   1.399       .  A
C150        H153   1.083       .  S
C154        C506   1.475       .  S
C154        C155   1.398       .  A
C154        C159   1.401       .  A
C155        C156   1.399       .  A
C155        H160   1.083       .  S
C156        C279   1.476       .  S
C156        C157   1.402       .  A
C157        C158   1.402       .  A
C157        H161   1.084       .  S
C158        C321   1.479       .  S
C158        C159   1.401       .  A
C159        H162   1.084       .  S
C163        C422   1.474       .  S
C163        C164   1.399       .  A
C163        C168   1.399       .  A
C164        C165   1.406       .  A
C164        H169   1.084       .  S
C165        C461   1.488       .  S
C165        C166   1.404       .  A
C166        C167   1.404       .  A
C166        H170   1.081       .  S
C167        C240   1.481       .  S
C167        C168   1.402       .  A
C168        H171   1.084       .  S
C172        C380   1.474       .  S
C172        C173   1.401       .  A
C172        C177   1.401       .  A
C173        C174   1.402       .  A
C173        H178   1.084       .  S
C174        C226   1.481       .  S
C174        C175   1.401       .  A
C175        C176   1.403       .  A
C175        H179   1.084       .  S
C176        C534   1.479       .  S
C176        C177   1.400       .  A
C177        H180   1.080       .  S
C181        C520   1.468       .  S
C181        C182   1.398       .  A
C181        C186   1.396       .  A
C182        C183   1.404       .  A
C182        H187   1.084       .  S
C183        C335   1.483       .  S
C183        C184   1.404       .  A
C184        C185   1.401       .  A
C184        H188   1.083       .  S
C185        C212   1.476       .  S
C185        C186   1.401       .  A
C186        H189   1.084       .  S
C190        C489   1.480       .  S
C190        C191   1.404       .  A
C190        C195   1.402       .  A
C191        C192   1.400       .  A
C191        H196   1.084       .  S
C192        C265   1.478       .  S
C192        C193   1.400       .  A
C193        C194   1.402       .  A
C193        H197   1.083       .  S
C194        C391   1.484       .  S
C194        C195   1.403       .  A
C195        H198   1.082       .  S
C199        C352   1.480       .  S
C199        C200   1.404       .  A
C199        C204   1.400       .  A
C200        C201   1.404       .  A
C200        H205   1.083       .  S
C201        C251   1.480       .  S
C201        C202   1.402       .  A
C202        C203   1.400       .  A
C202        H206   1.084       .  S
C203        C478   1.479       .  S
C203        C204   1.398       .  A
C204        H207   1.083       .  S
C208        C209   1.398       .  A
C208        C213   1.398       .  A
C208        H215   1.084       .  S
C209        C210   1.406       .  A
C210        C211   1.401       .  A
C210        N217   1.432       .  S
C211        C212   1.404       .  A
C211        H216   1.084       .  S
C212        C213   1.410       .  A
C213        N214   1.433       .  S
N214        H218   1.045       .  S
N214        H219   1.046       .  S
N217        H220   1.046       .  S
N217        H221   1.046       .  S
C222        C223   1.401       .  A
C222        C227   1.403       .  A
C222        H229   1.081       .  S
C223        C224   1.407       .  A
C224        C225   1.404       .  A
C224        N231   1.438       .  S
C225        C226   1.406       .  A
C225        H230   1.084       .  S
C226        C227   1.411       .  A
C227        N228   1.438       .  S
N228        H232   1.046       .  S
N228        H233   1.046       .  S
N231        H234   1.046       .  S
N231        H235   1.046       .  S
C236        C237   1.401       .  A
C236        C241   1.403       .  A
C236        H243   1.084       .  S
C237        C238   1.410       .  A
C238        C239   1.395       .  A
C238        N245   1.431       .  S
C239        C240   1.405       .  A
C239        H244   1.084       .  S
C240        C241   1.412       .  A
C241        N242   1.438       .  S
N242        H246   1.046       .  S
N242        H247   1.046       .  S
N245        H248   1.046       .  S
N245        H249   1.045       .  S
C250        C251   1.405       .  A
C250        C255   1.400       .  A
C250        H257   1.084       .  S
C251        C252   1.412       .  A
C252        C253   1.404       .  A
C252        N259   1.438       .  S
C253        C254   1.402       .  A
C253        H258   1.084       .  S
C254        C255   1.407       .  A
C255        N256   1.438       .  S
N256        H260   1.046       .  S
N256        H261   1.046       .  S
N259        H262   1.046       .  S
N259        H263   1.046       .  S
C264        C265   1.404       .  A
C264        C269   1.400       .  A
C264        H271   1.084       .  S
C265        C266   1.417       .  A
C266        C267   1.394       .  A
C266        N273   1.433       .  S
C267        C268   1.397       .  A
C267        H272   1.084       .  S
C268        C269   1.414       .  A
C269        N270   1.433       .  S
N270        H274   1.045       .  S
N270        H275   1.045       .  S
N273        H276   1.046       .  S
N273        H277   1.042       .  S
C278        C279   1.404       .  A
C278        C283   1.403       .  A
C278        H285   1.084       .  S
C279        C280   1.409       .  A
C280        C281   1.396       .  A
C280        N287   1.433       .  S
C281        C282   1.400       .  A
C281        H286   1.084       .  S
C282        C283   1.411       .  A
C283        N284   1.438       .  S
N284        H288   1.046       .  S
N284        H289   1.045       .  S
N287        H290   1.046       .  S
N287        H291   1.046       .  S
C292        C293   1.399       .  A
C292        C297   1.394       .  A
C292        H299   1.083       .  S
C293        C294   1.407       .  A
C294        C295   1.403       .  A
C294        N301   1.438       .  S
C295        C296   1.406       .  A
C295        H300   1.084       .  S
C296        C297   1.415       .  A
C297        N298   1.433       .  S
N298        H302   1.042       .  S
N298        H303   1.045       .  S
N301        H304   1.045       .  S
N301        H305   1.046       .  S
C306        C307   1.399       .  A
C306        C311   1.401       .  A
C306        H313   1.084       .  S
C307        C308   1.412       .  A
C308        C309   1.404       .  A
C308        N315   1.438       .  S
C309        C310   1.405       .  A
C309        H314   1.083       .  S
C310        C311   1.414       .  A
C311        N312   1.437       .  S
N312        H316   1.045       .  S
N312        H317   1.046       .  S
N315        H318   1.046       .  S
N315        H319   1.046       .  S
C320        C321   1.404       .  A
C320        C325   1.402       .  A
C320        H327   1.084       .  S
C321        C322   1.413       .  A
C322        C323   1.403       .  A
C322        N329   1.438       .  S
C323        C324   1.400       .  A
C323        H328   1.084       .  S
C324        C325   1.409       .  A
C325        N326   1.438       .  S
N326        H330   1.046       .  S
N326        H331   1.046       .  S
N329        H332   1.046       .  S
N329        H333   1.046       .  S
C334        C335   1.406       .  A
C334        C339   1.398       .  A
C334        H341   1.084       .  S
C335        C336   1.412       .  A
C336        C337   1.398       .  A
C336        N343   1.433       .  S
C337        C338   1.400       .  A
C337        H342   1.083       .  S
C338        C339   1.414       .  A
C339        N340   1.432       .  S
N340        H344   1.045       .  S
N340        H345   1.045       .  S
N343        H346   1.046       .  S
N343        H347   1.046       .  S
C348        C349   1.399       .  A
C348        C353   1.398       .  A
C348        H355   1.084       .  S
C349        C350   1.407       .  A
C350        C351   1.400       .  A
C350        N357   1.432       .  S
C351        C352   1.404       .  A
C351        H356   1.084       .  S
C352        C353   1.413       .  A
C353        N354   1.433       .  S
N354        H358   1.045       .  S
N354        H359   1.046       .  S
N357        H360   1.046       .  S
N357        H361   1.046       .  S
C362        C363   1.405       .  A
C362        C367   1.402       .  A
C362        H369   1.083       .  S
C363        C364   1.414       .  A
C364        C365   1.401       .  A
C364        N371   1.438       .  S
C365        C366   1.399       .  A
C365        H370   1.084       .  S
C366        C367   1.408       .  A
C367        N368   1.438       .  S
N368        H372   1.046       .  S
N368        H373   1.046       .  S
N371        H374   1.046       .  S
N371        H375   1.046       .  S
C376        C377   1.400       .  A
C376        C381   1.395       .  A
C376        H383   1.084       .  S
C377        C378   1.410       .  A
C378        C379   1.395       .  A
C378        N385   1.433       .  S
C379        C380   1.404       .  A
C379        H384   1.084       .  S
C380        C381   1.415       .  A
C381        N382   1.433       .  S
N382        H386   1.042       .  S
N382        H387   1.045       .  S
N385        H388   1.046       .  S
N385        H389   1.045       .  S
C390        C391   1.406       .  A
C390        C395   1.402       .  A
C390        H397   1.083       .  S
C391        C392   1.412       .  A
C392        C393   1.403       .  A
C392        N399   1.438       .  S
C393        C394   1.402       .  A
C393        H398   1.084       .  S
C394        C395   1.409       .  A
C395        N396   1.438       .  S
N396        H400   1.046       .  S
N396        H401   1.046       .  S
N399        H402   1.046       .  S
N399        H403   1.046       .  S
C404        C405   1.399       .  A
C404        C409   1.394       .  A
C404        H411   1.084       .  S
C405        C406   1.412       .  A
C406        C407   1.396       .  A
C406        N413   1.432       .  S
C407        C408   1.403       .  A
C407        H412   1.084       .  S
C408        C409   1.415       .  A
C409        N410   1.433       .  S
N410        H414   1.042       .  S
N410        H415   1.046       .  S
N413        H416   1.045       .  S
N413        H417   1.045       .  S
C418        C419   1.400       .  A
C418        C423   1.397       .  A
C418        H425   1.084       .  S
C419        C420   1.410       .  A
C420        C421   1.398       .  A
C420        N427   1.433       .  S
C421        C422   1.403       .  A
C421        H426   1.084       .  S
C422        C423   1.414       .  A
C423        N424   1.433       .  S
N424        H428   1.044       .  S
N424        H429   1.046       .  S
N427        H430   1.046       .  S
N427        H431   1.045       .  S
C432        C433   1.404       .  A
C432        C437   1.401       .  A
C432        H439   1.084       .  S
C433        C434   1.414       .  A
C434        C435   1.403       .  A
C434        N441   1.438       .  S
C435        C436   1.400       .  A
C435        H440   1.084       .  S
C436        C437   1.409       .  A
C437        N438   1.439       .  S
N438        H442   1.046       .  S
N438        H443   1.046       .  S
N441        H444   1.046       .  S
N441        H445   1.046       .  S
C446        C447   1.400       .  A
C446        C451   1.397       .  A
C446        H453   1.084       .  S
C447        C448   1.411       .  A
C448        C449   1.393       .  A
C448        N455   1.433       .  S
C449        C450   1.402       .  A
C449        H454   1.084       .  S
C450        C451   1.415       .  A
C451        N452   1.433       .  S
N452        H456   1.043       .  S
N452        H457   1.045       .  S
N455        H458   1.046       .  S
N455        H459   1.045       .  S
C460        C461   1.405       .  A
C460        C465   1.400       .  A
C460        H467   1.083       .  S
C461        C462   1.418       .  A
C462        C463   1.406       .  A
C462        N469   1.438       .  S
C463        C464   1.401       .  A
C463        H468   1.083       .  S
C464        C465   1.409       .  A
C465        N466   1.438       .  S
N466        H470   1.046       .  S
N466        H471   1.046       .  S
N469        H472   1.045       .  S
N469        H473   1.046       .  S
C474        C475   1.400       .  A
C474        C479   1.401       .  A
C474        H481   1.084       .  S
C475        C476   1.409       .  A
C476        C477   1.401       .  A
C476        N483   1.438       .  S
C477        C478   1.404       .  A
C477        H482   1.084       .  S
C478        C479   1.414       .  A
C479        N480   1.438       .  S
N480        H484   1.046       .  S
N480        H485   1.045       .  S
N483        H486   1.046       .  S
N483        H487   1.046       .  S
C488        C489   1.405       .  A
C488        C493   1.396       .  A
C488        H495   1.084       .  S
C489        C490   1.417       .  A
C490        C491   1.396       .  A
C490        N497   1.433       .  S
C491        C492   1.400       .  A
C491        H496   1.084       .  S
C492        C493   1.410       .  A
C493        N494   1.433       .  S
N494        H498   1.045       .  S
N494        H499   1.046       .  S
N497        H500   1.045       .  S
N497        H501   1.042       .  S
C502        C503   1.399       .  A
C502        C507   1.401       .  A
C502        H509   1.084       .  S
C503        C504   1.407       .  A
C504        C505   1.400       .  A
C504        N511   1.438       .  S
C505        C506   1.403       .  A
C505        H510   1.084       .  S
C506        C507   1.413       .  A
C507        N508   1.438       .  S
N508        H512   1.046       .  S
N508        H513   1.046       .  S
N511        H514   1.046       .  S
N511        H515   1.046       .  S
C516        C517   1.400       .  A
C516        C521   1.397       .  A
C516        H523   1.084       .  S
C517        C518   1.407       .  A
C518        C519   1.402       .  A
C518        N525   1.438       .  S
C519        C520   1.401       .  A
C519        H524   1.084       .  S
C520        C521   1.412       .  A
C521        N522   1.433       .  S
N522        H526   1.044       .  S
N522        H527   1.046       .  S
N525        H528   1.045       .  S
N525        H529   1.046       .  S
C530        C531   1.402       .  A
C530        C535   1.398       .  A
C530        H537   1.084       .  S
C531        C532   1.408       .  A
C532        C533   1.400       .  A
C532        N539   1.438       .  S
C533        C534   1.404       .  A
C533        H538   1.084       .  S
C534        C535   1.416       .  A
C535        N536   1.433       .  S
N536        H540   1.042       .  S
N536        H541   1.045       .  S
N539        H542   1.045       .  S
N539        H543   1.046       .  S
