geometry optimzed in LAMMPS
_audit_creation_date              2020-11-30 
_audit_creation_method            'lammps2cif' 
_symmetry_space_group_name_H-M    'P1' 
_symmetry_Int_Tables_number       1 
_symmetry_cell_setting            triclinic 
loop_ 
_symmetry_equiv_pos_as_xyz 
  x,y,z 
_cell_length_a                    40.850677550377966 
_cell_length_b                    40.34981920655069 
_cell_length_c                    40.25533738977524 
_cell_angle_alpha                 86.92657225205379 
_cell_angle_beta                  87.10285136231549 
_cell_angle_gamma                 92.9864639166906 
loop_ 
_atom_site_label 
_atom_site_type_symbol 
_atom_site_fract_x 
_atom_site_fract_y 
_atom_site_fract_z 
_atom_site_charge 
C1          C  0.10478398  0.27703145  0.52081933     0.02920
C2          C  0.13823496  0.27330207  0.02591446    -0.13230
C3          C  0.15024500  0.24153110  0.03090440     0.00420
C4          C  0.12868910  0.21337911  0.03037703    -0.11750
C5          C  0.09495802  0.21674637  0.52686563     0.02920
C6          C  0.08329356  0.24859325  0.52143417    -0.11170
H7          H  0.15458002  0.29511669  0.02758722     0.08510
H8          H  0.13786577  0.18890105  0.03481827     0.06040
H9          H  0.05714878  0.25135424  0.51993611     0.05890
C10         C  0.31963842  0.18753566  0.10256631     0.02920
C11         C  0.28840086  0.19170662  0.09026919    -0.13230
C12         C  0.28071032  0.22224904  0.07553889     0.00420
C13         C  0.30424563  0.24878667  0.07333044    -0.11750
C14         C  0.33459825  0.24653774  0.08865375     0.02920
C15         C  0.34167176  0.21550679  0.10338042    -0.11170
H16         H  0.27060398  0.17078641  0.09069327     0.08510
H17         H  0.29820939  0.27149760  0.06001927     0.06040
H18         H  0.36449884  0.21247999  0.11483716     0.05890
C19         C  0.17419933  0.44733609  0.19900318     0.02920
C20         C  0.17487658  0.45703269  0.23206908    -0.13230
C21         C  0.20504862  0.46216984  0.24710851     0.00420
C22         C  0.23447859  0.45833676  0.22834979    -0.11750
C23         C  0.23392341  0.44870775  0.19543707     0.02920
C24         C  0.20382940  0.44189029  0.18147653    -0.11170
H25         H  0.15219505  0.46244636  0.24529444     0.08510
H26         H  0.25784921  0.46404230  0.23894236     0.06040
H27         H  0.20355991  0.43475975  0.15590743     0.05890
C28         C  0.25000043  0.02381851  0.42628219     0.02920
C29         C  0.22160447  0.03072489  0.44489878    -0.13230
C30         C  0.19072286  0.02642235  0.43183390     0.00420
C31         C  0.18844495  0.01718945  0.39883991    -0.11750
C32         C  0.21689289  0.01208714  0.37902153     0.02920
C33         C  0.24773445  0.01508705  0.39309160    -0.11170
H34         H  0.22333854  0.03686924  0.47067879     0.08510
H35         H  0.16452863  0.01244352  0.38904871     0.06040
H36         H  0.26960345  0.00878039  0.37897122     0.05890
C37         C  0.01169545  0.12493137  0.27215855     0.02920
C38         C  0.00429138  0.15836746  0.27358790    -0.13230
C39         C  0.00425785  0.17367276  0.30398701     0.00420
C40         C  0.01307660  0.15571044  0.33256635    -0.11750
C41         C  0.01821222  0.12148718  0.33192513     0.02920
C42         C  0.01828127  0.10648695  0.30132000    -0.11170
H43         H  0.99624865  0.17167724  0.25161774     0.08510
H44         H  0.01143647  0.16722707  0.35628029     0.06040
H45         H  0.02015112  0.07983156  0.30058876     0.05890
C46         C  0.42197141  0.34016814  0.35513782     0.02920
C47         C  0.43120590  0.30718076  0.35326425    -0.13230
C48         C  0.43565561  0.29338635  0.32222979     0.00420
C49         C  0.43016768  0.31241804  0.29317854    -0.11750
C50         C  0.42438913  0.34628131  0.29457178     0.02920
C51         C  0.41915732  0.35970076  0.32564465    -0.11170
H52         H  0.43661926  0.29292861  0.37572727     0.08510
H53         H  0.43355778  0.30165275  0.26925688     0.06040
H54         H  0.41583148  0.38609599  0.32689465     0.05890
O55         O  0.02969291  0.41838371  0.01113744    -0.80340
O56         O  0.43084924  0.45976172  0.16885585    -0.81890
O57         O  0.03272069  0.43076746  0.12451925    -0.78910
O58         O  0.44109452  0.37715586  0.09160696    -0.77290
O59         O  0.40010757  0.39393490  0.05937040    -0.79080
O60         O  0.05233686  0.48465381  0.11532057    -0.80020
O61         O  0.46006607  0.41645998  0.15182024    -0.81340
O62         O  0.01816542  0.39361672  0.06314517    -0.81630
Eu63       Eu  0.48088213  0.42677435  0.09449192     2.39200
O64         O  0.42839039  0.44743175  0.09704322    -0.89140
O65         O  0.01560836  0.46435791  0.06017420    -0.92750
C66         C  0.03361541  0.39560319  0.03441003     1.01940
C67         C  0.44301996  0.43109314  0.17386378     1.01760
C68         C  0.05438561  0.45482212  0.12776575     1.01710
C69         C  0.41335589  0.37209789  0.07764562     0.99570
H70         H  0.49118350  0.47825960  0.13933963     0.29310
O71         O  0.48297992  0.47962210  0.11724875    -1.01530
H72         H  0.46137819  0.40947458  0.03150241     0.29350
O73         O  0.46175956  0.43122025  0.04043291    -1.04070
O74         O  0.39796450  0.04968245  0.11771644    -0.81300
O75         O  0.49852774  0.51055511  0.45813118    -0.80830
O76         O  0.01231201  0.04600768  0.13397783    -0.79270
O77         O  0.36046546  0.44896628  0.08479139    -0.82610
O78         O  0.41398122  0.42233198  0.99098141    -0.80470
O79         O  0.06578444  0.02012302  0.04353628    -0.79120
O80         O  0.48137658  0.09155913  0.03378067    -0.80640
O81         O  0.39181563  0.03641962  0.00034279    -0.82560
O82         O  0.02455891  0.07558804  0.06372733    -0.79300
O83         O  0.37223822  0.48260364  0.00942256    -0.81980
O84         O  0.46062324  0.03475248  0.15679021    -0.77710
O85         O  0.05256926  0.49155339  0.99793540    -0.77740
O86         O  0.46608355  0.43456589  0.46894686    -0.77390
O87         O  0.37482731  0.47676200  0.13048553    -0.80880
O88         O  0.40697575  0.07404268  0.06506882    -0.80310
O89         O  0.46785623  0.05243147  0.47563348    -0.78640
Eu90       Eu  0.43020301  0.49972427  0.12003280     2.39770
Eu91       Eu  0.49643257  0.46869599  0.00615704     2.39570
Eu92       Eu  0.01649538  0.01714999  0.08206304     2.38400
Eu93       Eu  0.40874814  0.45170781  0.04337144     2.39880
Eu94       Eu  0.44340842  0.04118660  0.03153945     2.39790
O95         O  0.44295112  0.48867829  0.00828424    -0.93050
O96         O  0.46371526  0.03762763  0.08536275    -0.91940
C97         C  0.39310315  0.07211674  0.09466723     1.02120
C98         C  0.48648152  0.03947659  0.45379317     1.00840
C99         C  0.48966390  0.04886057  0.15690831     1.00230
C100        C  0.35455650  0.45934346  0.11437328     1.02240
C101        C  0.43757698  0.41947848  0.46881146     1.01160
C102        C  0.07230387  0.50936983  0.01440631     1.00010
C103        C  0.00949686  0.09733176  0.04658221     1.00060
C104        C  0.37015167  0.01233206  0.99678742     1.02680
H105        H  0.01078236  0.03630688  0.01556452     0.30050
O106        O  0.49622976  0.02086402  0.02908524    -1.05210
H107        H  0.38721328  0.01100928  0.06755972     0.32100
O108        O  0.40939238  0.50379274  0.06633918    -1.07770
C109        C  0.46257012  0.39125377  0.21584450    -0.20510
C110        C  0.43813414  0.41276487  0.20690255    -0.07080
C111        C  0.40961725  0.41380258  0.22826882     0.13790
C112        C  0.40534984  0.39134720  0.25638905    -0.20560
C113        C  0.42929989  0.36875439  0.26416001    -0.07080
C114        C  0.45900799  0.36990339  0.24434978     0.13780
C115        C  0.48791924  0.35002222  0.25361016    -0.23910
H116        H  0.48484116  0.39091378  0.20015639     0.15070
H117        H  0.38323817  0.39139938  0.27244568     0.15100
C118        C  0.38359286  0.43805860  0.22162522    -0.23860
H119        H  0.51025931  0.35763493  0.23758609     0.05310
H120        H  0.48277559  0.32321679  0.25038916     0.08530
H121        H  0.49380987  0.35397976  0.27977930     0.08530
H122        H  0.37418334  0.43495827  0.19658630     0.08520
H123        H  0.39412566  0.46384498  0.22295023     0.08520
H124        H  0.36250320  0.43445999  0.24022232     0.05290
C125        C  0.45346349  0.35862005  0.40168539    -0.20510
C126        C  0.42329908  0.35680528  0.38689477    -0.07080
C127        C  0.39665385  0.37339311  0.40074000     0.13790
C128        C  0.40152839  0.39308359  0.42809145    -0.20560
C129        C  0.43249698  0.39665184  0.44158929    -0.07080
C130        C  0.45846750  0.37810897  0.42879575     0.13780
C131        C  0.49148910  0.37783919  0.44380926    -0.23910
H132        H  0.47371732  0.34559599  0.39107451     0.15070
H133        H  0.38136010  0.40643226  0.43833434     0.15100
C134        C  0.36311171  0.36996263  0.38700080    -0.23860
H135        H  0.00713830  0.35911649  0.43277563     0.05310
H136        H  0.48807265  0.37144784  0.47098127     0.08530
H137        H  0.50499206  0.40235176  0.43918645     0.08530
H138        H  0.35467321  0.34330396  0.38794068     0.08520
H139        H  0.36385083  0.38020938  0.36084642     0.08520
H140        H  0.34482012  0.38348824  0.40159321     0.05290
C141        C  0.46993940  0.07716376  0.20678315    -0.20510
C142        C  0.49670522  0.06981830  0.18541385    -0.07080
C143        C  0.02875881  0.08230975  0.19237295     0.13790
C144        C  0.03286236  0.10081399  0.22061389    -0.20560
C145        C  0.00604787  0.10735999  0.24174583    -0.07080
C146        C  0.47424263  0.09559471  0.23479156     0.13780
C147        C  0.44484945  0.10194733  0.25732518    -0.23910
H148        H  0.44526899  0.06831135  0.20182520     0.15070
H149        H  0.05717707  0.11000661  0.22651592     0.15100
C150        C  0.05896415  0.07612439  0.17094053    -0.23860
H151        H  0.42178548  0.09048424  0.24850553     0.05310
H152        H  0.44197847  0.12909114  0.25819005     0.08530
H153        H  0.44816788  0.09131960  0.28287512     0.08530
H154        H  0.05702208  0.08756927  0.14546605     0.08520
H155        H  0.06193144  0.04899165  0.16991621     0.08520
H156        H  0.08163833  0.08723059  0.18092338     0.05290
C157        C  0.48510768  0.10650598  0.38335002    -0.20510
C158        C  0.01295788  0.10051568  0.36344882    -0.07080
C159        C  0.03229715  0.07381124  0.37299064     0.13790
C160        C  0.02269023  0.05368056  0.40196432    -0.20560
C161        C  0.49491461  0.06025828  0.42230206    -0.07080
C162        C  0.47636671  0.08782531  0.41276442     0.13780
C163        C  0.44665702  0.09805937  0.43254893    -0.23910
H164        H  0.46957724  0.12618416  0.37561463     0.15070
H165        H  0.03763170  0.03333250  0.40915806     0.15100
C166        C  0.06353139  0.06644792  0.35397134    -0.23860
H167        H  0.43333585  0.11764200  0.41928800     0.05310
H168        H  0.45371300  0.10784592  0.45643577     0.08530
H169        H  0.42970571  0.07622967  0.43751226     0.08530
H170        H  0.07038522  0.08499968  0.33317281     0.08520
H171        H  0.06079015  0.04146734  0.34381722     0.08520
H172        H  0.08405670  0.06667406  0.37100588     0.05290
C173        C  0.48654005  0.26269689  0.32201448    -0.20510
C174        C  0.45237302  0.26199545  0.31919235    -0.07080
C175        C  0.43557356  0.23254438  0.31064361     0.13790
C176        C  0.45336060  0.20433808  0.30507932    -0.20560
C177        C  0.48755111  0.20501547  0.30782041    -0.07080
C178        C  0.00435846  0.23447891  0.31644464     0.13780
C179        C  0.04106110  0.23634958  0.31893215    -0.23910
H180        H  0.99935144  0.28564736  0.32800091     0.15070
H181        H  0.44050450  0.18144698  0.29899649     0.15100
C182        C  0.39892110  0.23084447  0.30783407    -0.23860
H183        H  0.05038757  0.26155558  0.32495451     0.05310
H184        H  0.05309123  0.23033550  0.29480667     0.08530
H185        H  0.04809712  0.21841446  0.33882954     0.08530
H186        H  0.39217750  0.24902379  0.28800403     0.08520
H187        H  0.38672563  0.23673423  0.33192133     0.08520
H188        H  0.38956096  0.20573681  0.30153622     0.05290
C189        C  0.10703801  0.04248522  0.47172096    -0.20510
C190        C  0.10455974  0.01777039  0.49776147    -0.07080
C191        C  0.13094709  0.49748783  0.00322951     0.13790
C192        C  0.15900679  0.00158623  0.48169639    -0.20560
C193        C  0.16120558  0.02542779  0.45479051    -0.07080
C194        C  0.13529854  0.04678333  0.45023783     0.13780
C195        C  0.13749356  0.07413638  0.42310976    -0.23910
H196        H  0.08634437  0.05768895  0.46755163     0.15070
H197        H  0.17883821  0.48518114  0.48509931     0.15100
C198        C  0.12887597  0.47062899  0.03088705    -0.23860
H199        H  0.11546882  0.08916401  0.42394648     0.05310
H200        H  0.13947956  0.06354998  0.39829419     0.08530
H201        H  0.15938311  0.09097978  0.42612248     0.08530
H202        H  0.10814618  0.45246851  0.02731832     0.08520
H203        H  0.12488274  0.48190778  0.05520029     0.08520
H204        H  0.15173824  0.45692505  0.03164037     0.05290
C205        C  0.30712046  0.04442201  0.43598282    -0.20510
C206        C  0.28091951  0.02108967  0.44359910    -0.07080
C207        C  0.28406943  0.99554720  0.46835418     0.13790
C208        C  0.31286278  0.49461846  0.48562115    -0.20560
C209        C  0.33970280  0.01768436  0.47818251    -0.07080
C210        C  0.33661691  0.04276326  0.45257301     0.13780
C211        C  0.36484160  0.06599959  0.44046461    -0.23910
H212        H  0.30464212  0.06364546  0.41654113     0.15070
H213        H  0.31433654  0.47518386  0.00504630     0.15100
C214        C  0.25743612  0.46852668  0.47615640    -0.23860
H215        H  0.35827567  0.08367243  0.42006436     0.05310
H216        H  0.38419306  0.05057949  0.43029772     0.08530
H217        H  0.37352421  0.08085139  0.46102685     0.08530
H218        H  0.25129654  0.45629410  0.45303032     0.08520
H219        H  0.23527968  0.47917015  0.48725040     0.08520
H220        H  0.26508707  0.44909838  0.49431361     0.05290
C221        C  0.11650406  0.42582405  0.19050472    -0.20510
C222        C  0.14346936  0.44792904  0.18072708    -0.07080
C223        C  0.14077302  0.47109409  0.15355886     0.13790
C224        C  0.11203408  0.47098846  0.13640488    -0.20560
C225        C  0.08473974  0.44935525  0.14596843    -0.07080
C226        C  0.08703667  0.42630794  0.17349402     0.13780
C227        C  0.05835227  0.40336176  0.18594595    -0.23910
H228        H  0.11846075  0.40835836  0.21162844     0.15070
H229        H  0.11082017  0.48872160  0.11537540     0.15100
C230        C  0.16756656  0.49713427  0.14297984    -0.23860
H231        H  0.06410643  0.38790030  0.20834025     0.05310
H232        H  0.05152908  0.38633486  0.16636602     0.08530
H233        H  0.03725866  0.41831194  0.19280218     0.08530
H234        H  0.18884824  0.48519718  0.13159971     0.08520
H235        H  0.17475297  0.01098557  0.16481500     0.08520
H236        H  0.15961498  0.01553335  0.12392879     0.05290
C237        C  0.28297706  0.42254632  0.17122408    -0.20510
C238        C  0.26437767  0.45060264  0.17377682    -0.07080
C239        C  0.27513233  0.48052069  0.15578868     0.13790
C240        C  0.30287958  0.48104664  0.13384942    -0.20560
C241        C  0.32185196  0.45324445  0.13141523    -0.07080
C242        C  0.31258289  0.42402127  0.15161819     0.13850
C243        C  0.33415392  0.39501625  0.15517497    -0.23910
H244        H  0.27529387  0.39997172  0.18601323     0.15070
H245        H  0.31115964  0.00408152  0.12010507     0.15100
C246        C  0.25857322  0.01244630  0.16108741    -0.23860
H247        H  0.33859927  0.38981011  0.18187964     0.05310
H248        H  0.35848171  0.39973957  0.14181454     0.08530
H249        H  0.32160010  0.37254435  0.14589244     0.08530
H250        H  0.25939540  0.51846206  0.18763161     0.08520
H251        H  0.23278855  0.00994759  0.15441805     0.08520
H252        H  0.27071377  0.03367290  0.14563339     0.05290
C253        C  0.22332599  0.00576986  0.28466549    -0.20510
C254        C  0.20648020  0.47499318  0.28107163    -0.07080
C255        C  0.19292045  0.45660145  0.30986353     0.13790
C256        C  0.19664417  0.46939779  0.34138326    -0.20560
C257        C  0.21381678  0.99998480  0.34496463    -0.07080
C258        C  0.22707419  0.01852794  0.31617630     0.13780
C259        C  0.24438541  0.05215809  0.31849120    -0.23910
H260        H  0.23360184  0.01992048  0.26258036     0.15070
H261        H  0.18647990  0.45522896  0.36350086     0.15100
C262        C  0.17561969  0.42295330  0.30763629    -0.23860
H263        H  0.25193954  0.06383839  0.29347673     0.05310
H264        H  0.26682288  0.04980695  0.33263431     0.08530
H265        H  0.22774945  0.06893033  0.33123423     0.08530
H266        H  0.19226201  0.40611480  0.29500260     0.08520
H267        H  0.15319104  0.42525403  0.29347915     0.08520
H268        H  0.16801406  0.41136287  0.33267592     0.05290
C269        C  0.32571132  0.13111991  0.08293935    -0.20510
C270        C  0.33176143  0.15352583  0.10776885    -0.07080
C271        C  0.35368612  0.14485612  0.13267622     0.13790
C272        C  0.37265079  0.11706170  0.12892981    -0.20560
C273        C  0.36913754  0.09718459  0.10168091    -0.07080
C274        C  0.34378121  0.10290303  0.07984918     0.13780
C275        C  0.33594818  0.07961608  0.05284251    -0.23910
H276        H  0.30850888  0.13687396  0.06412034     0.15070
H277        H  0.39102126  0.11162379  0.14667413     0.15100
C278        C  0.35750005  0.16413582  0.16339619    -0.23860
H279        H  0.31373821  0.08657808  0.03985946     0.05310
H280        H  0.33128134  0.05388168  0.06389559     0.08530
H281        H  0.35654670  0.08028698  0.03379731     0.08530
H282        H  0.33972389  0.18389059  0.16530076     0.08520
H283        H  0.38284551  0.17552001  0.16336203     0.08520
H284        H  0.35298684  0.14703585  0.18589505     0.05290
C285        C  0.40998009  0.30983762  0.08557724    -0.20510
C286        C  0.39398468  0.33969231  0.08286735    -0.07080
C287        C  0.35906228  0.33805988  0.08357260     0.13790
C288        C  0.34180119  0.30764419  0.09067969    -0.20560
C289        C  0.35712119  0.27736572  0.08978694    -0.07080
C290        C  0.39225618  0.27865079  0.08719167     0.13780
C291        C  0.41192534  0.24825931  0.08438742    -0.23910
H292        H  0.43658669  0.31087876  0.08431209     0.15070
H293        H  0.31539597  0.30766288  0.09463831     0.15100
C294        C  0.33892540  0.36734607  0.07463429    -0.23860
H295        H  0.43770561  0.25495808  0.07540206     0.05310
H296        H  0.40131526  0.23154682  0.06621874     0.08530
H297        H  0.41321194  0.23526532  0.10921475     0.08530
H298        H  0.34499265  0.38833710  0.08989612     0.08520
H299        H  0.34369669  0.37513174  0.04788290     0.08520
H300        H  0.31209467  0.36138310  0.07843330     0.05290
C301        C  0.05166462  0.17780576  0.50675467    -0.20510
C302        C  0.07141586  0.18738791  0.03252862    -0.07080
C303        C  0.06768120  0.16949090  0.06378165     0.13790
C304        C  0.04571006  0.14154431  0.06786385    -0.20560
C305        C  0.02708649  0.13070381  0.04167432    -0.07080
C306        C  0.02961414  0.14963475  0.01088336     0.13780
C307        C  0.50992858  0.13988527  0.48208408    -0.23910
H308        H  0.05403759  0.19206307  0.48307285     0.15070
H309        H  0.04358981  0.12750145  0.09167806     0.15100
C310        C  0.08634195  0.17996624  0.09322403    -0.23860
H311        H  0.51573794  0.15672868  0.45958472     0.05310
H312        H  0.48349187  0.14137342  0.98918594     0.08530
H313        H  0.51512805  0.11422935  0.47552101     0.08530
H314        H  0.08189413  0.20624520  0.09800129     0.08520
H315        H  0.11297649  0.17718032  0.08846163     0.08520
H316        H  0.07858789  0.16452357  0.11622818     0.05290
C317        C  0.09333900  0.32787398  0.05008593    -0.20510
C318        C  0.09112149  0.31042140  0.02106739    -0.07080
C319        C  0.07418718  0.32406822  0.49426202     0.13790
C320        C  0.05782951  0.35361167  0.99816324    -0.20560
C321        C  0.05702303  0.36913700  0.02855345    -0.07080
C322        C  0.07656589  0.35695851  0.05426936     0.13780
C323        C  0.08024572  0.37450144  0.08618856    -0.23910
H324        H  0.10706059  0.31777600  0.07029018     0.15070
H325        H  0.04453414  0.36376924  0.47789930     0.15100
C326        C  0.07340653  0.30757289  0.46159878    -0.23860
H327        H  0.09926182  0.36358284  0.10153265     0.05310
H328        H  0.05692041  0.37225881  0.10163077     0.08530
H329        H  0.08773523  0.40112347  0.08039807     0.08530
H330        H  0.06086001  0.28250481  0.46520343     0.08520
H331        H  0.09887430  0.30525469  0.45133456     0.08520
H332        H  0.06005622  0.32214200  0.44295420     0.05290
C333        C  0.20898553  0.22969407  0.01907260    -0.20510
C334        C  0.18396000  0.23766947  0.04199118    -0.07080
C335        C  0.19087881  0.24041564  0.07581400     0.13790
C336        C  0.22258572  0.23490264  0.08602878    -0.20560
C337        C  0.24761128  0.22697112  0.06320380    -0.07080
C338        C  0.24089325  0.22454511  0.02930985     0.13780
C339        C  0.26734624  0.21631996  0.00415397    -0.23910
H340        H  0.20350737  0.22745591  0.49319848     0.15070
H341        H  0.22798279  0.23693115  0.11195859     0.15100
C342        C  0.16470008  0.24891081  0.10120786    -0.23860
H343        H  0.25799530  0.21510824  0.47879041     0.05310
H344        H  0.27690126  0.19183277  0.01133333     0.08530
H345        H  0.28776028  0.23567729  0.00318724     0.08530
H346        H  0.14397300  0.22995047  0.10215396     0.08520
H347        H  0.15556580  0.27366357  0.09438605     0.08520
H348        H  0.17415771  0.24973140  0.12655308     0.05290
C349        C  0.10478427  0.27703176  0.02081925     0.02920
C350        C  0.13823471  0.27330196  0.52591449    -0.13230
C351        C  0.15024493  0.24153107  0.53090436     0.00420
C352        C  0.12868920  0.21337896  0.53037695    -0.11750
C353        C  0.09495794  0.21674671  0.02686564     0.02920
C354        C  0.08329369  0.24859367  0.02143411    -0.11170
H355        H  0.15457965  0.29511667  0.52758728     0.08510
H356        H  0.13786602  0.18890096  0.53481815     0.06040
H357        H  0.05714894  0.25135482  0.01993600     0.05890
C358        C  0.31963833  0.18753572  0.60256608     0.02920
C359        C  0.28840082  0.19170666  0.59026882    -0.13230
C360        C  0.28071011  0.22224927  0.57553904     0.00420
C361        C  0.30424520  0.24878707  0.57333118    -0.11750
C362        C  0.33459785  0.24653792  0.58865431     0.02920
C363        C  0.34167154  0.21550688  0.60338056    -0.11170
H364        H  0.27060408  0.17078636  0.59069249     0.08510
H365        H  0.29820883  0.27149831  0.56002062     0.06040
H366        H  0.36449869  0.21248013  0.61483725     0.05890
C367        C  0.17419919  0.44733552  0.69900327     0.02920
C368        C  0.17487630  0.45703221  0.73206916    -0.13230
C369        C  0.20504829  0.46216949  0.74710866     0.00420
C370        C  0.23447831  0.45833649  0.72835001    -0.11750
C371        C  0.23392324  0.44870743  0.69543732     0.02920
C372        C  0.20382931  0.44188972  0.68147675    -0.11170
H373        H  0.15219472  0.46244586  0.74529443     0.08510
H374        H  0.25784889  0.46404215  0.73894262     0.06040
H375        H  0.20355993  0.43475901  0.65590770     0.05890
C376        C  0.25000056  0.02381653  0.92628110     0.02920
C377        C  0.22160468  0.03072305  0.94489777    -0.13230
C378        C  0.19072300  0.02642054  0.93183306     0.00420
C379        C  0.18844492  0.01718747  0.89883914    -0.11750
C380        C  0.21689277  0.01208500  0.87902069     0.02920
C381        C  0.24773440  0.01508488  0.89309060    -0.11170
H382        H  0.22333890  0.03686761  0.97067770     0.08510
H383        H  0.16452854  0.01244163  0.88904802     0.06040
H384        H  0.26960334  0.00877814  0.87897015     0.05890
C385        C  0.01169600  0.12493187  0.77215840     0.02920
C386        C  0.00429183  0.15836794  0.77358767    -0.13230
C387        C  0.00425803  0.17367324  0.80398679     0.00420
C388        C  0.01307662  0.15571097  0.83256622    -0.11750
C389        C  0.01821234  0.12148773  0.83192506     0.02920
C390        C  0.01828164  0.10648749  0.80131993    -0.11170
H391        H  0.99624919  0.17167768  0.75161745     0.08510
H392        H  0.01143631  0.16722761  0.85628014     0.06040
H393        H  0.02015153  0.07983210  0.80058873     0.05890
C394        C  0.42197147  0.34016820  0.85513790     0.02920
C395        C  0.43120604  0.30718085  0.85326426    -0.13230
C396        C  0.43565564  0.29338646  0.82222978     0.00420
C397        C  0.43016749  0.31241812  0.79317857    -0.11750
C398        C  0.42438892  0.34628140  0.79457186     0.02920
C399        C  0.41915722  0.35970082  0.82564475    -0.11170
H400        H  0.43661955  0.29292873  0.87572724     0.08510
H401        H  0.43355750  0.30165285  0.76925691     0.06040
H402        H  0.41583137  0.38609604  0.82689479     0.05890
O403        O  0.02969239  0.41838310  0.51113768    -0.80340
O404        O  0.43084903  0.45976199  0.66885602    -0.81890
O405        O  0.03272072  0.43076725  0.62451921    -0.78910
O406        O  0.44109371  0.37715592  0.59160733    -0.77290
O407        O  0.40010662  0.39393474  0.55937078    -0.79080
O408        O  0.05233723  0.48465346  0.61532029    -0.80020
O409        O  0.46006553  0.41646005  0.65182036    -0.81340
O410        O  0.01816476  0.39361629  0.56314544    -0.81630
Eu411      Eu  0.48088147  0.42677417  0.59449201     2.39200
O412        O  0.42838990  0.44743179  0.59704331    -0.89140
O413        O  0.01560844  0.46435778  0.56017418    -0.92750
C414        C  0.03361474  0.39560260  0.53441030     1.01940
C415        C  0.44301963  0.43109335  0.67386395     1.01760
C416        C  0.05438579  0.45482177  0.62776556     1.01710
C417        C  0.41335502  0.37209788  0.57764616     0.99570
H418        H  0.49118301  0.47825940  0.63933977     0.29310
O419        O  0.48297946  0.47962192  0.61724887    -1.01530
H420        H  0.46137767  0.40947421  0.53150252     0.29350
O421        O  0.46175908  0.43121993  0.54043295    -1.04070
O422        O  0.39796511  0.04968316  0.61771647    -0.81300
O423        O  0.49852772  0.51055556  0.95813115    -0.80830
O424        O  0.01231258  0.04600754  0.63397792    -0.79270
O425        O  0.36046521  0.44896627  0.58479174    -0.82610
O426        O  0.41398090  0.42233176  0.49098148    -0.80470
O427        O  0.06578415  0.02012237  0.54353650    -0.79120
O428        O  0.48137708  0.09155888  0.53378053    -0.80640
O429        O  0.39181585  0.03641972  0.50034328    -0.82560
O430        O  0.02455912  0.07558756  0.56372742    -0.79300
O431        O  0.37223797  0.48260365  0.50942264    -0.81980
O432        O  0.46062483  0.03475362  0.65678990    -0.77710
O433        O  0.05256910  0.49155267  0.49793523    -0.77740
O434        O  0.46608386  0.43456610  0.96894676    -0.77390
O435        O  0.37482717  0.47676192  0.63048591    -0.80880
O436        O  0.40697629  0.07404300  0.56506870    -0.80310
O437        O  0.46785608  0.05243194  0.97563327    -0.78640
Eu438      Eu  0.43020269  0.49972438  0.62003281     2.39770
Eu439      Eu  0.49643231  0.46869565  0.50615717     2.39570
Eu440      Eu  0.01649521  0.01714960  0.58206323     2.38400
Eu441      Eu  0.40874772  0.45170762  0.54337152     2.39880
Eu442      Eu  0.44340864  0.04118640  0.53153973     2.39790
O443        O  0.44295088  0.48867794  0.50828428    -0.93050
O444        O  0.46371602  0.03762808  0.58536281    -0.91940
C445        C  0.39310369  0.07211725  0.59466708     1.02120
C446        C  0.48648160  0.03947719  0.95379305     1.00840
C447        C  0.48966563  0.04886139  0.65690798     1.00230
C448        C  0.35455636  0.45934333  0.61437371     1.02240
C449        C  0.43757729  0.41947868  0.96881139     1.01160
C450        C  0.07230387  0.50936919  0.51440591     1.00010
C451        C  0.00949714  0.09733130  0.54658227     1.00060
C452        C  0.37015148  0.01233245  0.49678835     1.02680
H453        H  0.01078232  0.03630641  0.51556460     0.30050
O454        O  0.49622988  0.02086366  0.52908519    -1.05210
H455        H  0.38721314  0.01100972  0.56756072     0.32100
O456        O  0.40939215  0.50379265  0.56633912    -1.07770
C457        C  0.46256979  0.39125382  0.71584452    -0.20510
C458        C  0.43813393  0.41276514  0.70690276    -0.07080
C459        C  0.40961721  0.41380307  0.72826923     0.13790
C460        C  0.40534973  0.39134755  0.75638935    -0.20560
C461        C  0.42929965  0.36875451  0.76416011    -0.07080
C462        C  0.45900768  0.36990341  0.74434977     0.13780
C463        C  0.48791890  0.35002213  0.75361002    -0.23910
H464        H  0.48484072  0.39091367  0.70015626     0.15070
H465        H  0.38323815  0.39139985  0.77244610     0.15100
C466        C  0.38359319  0.43805961  0.72162607    -0.23860
H467        H  0.51025895  0.35763484  0.73758591     0.05310
H468        H  0.48277519  0.32321673  0.75038892     0.08530
H469        H  0.49380962  0.35397958  0.77977915     0.08530
H470        H  0.37418354  0.43495988  0.69658713     0.08520
H471        H  0.39412641  0.46384579  0.72295139     0.08520
H472        H  0.36250356  0.43446107  0.74022321     0.05290
C473        C  0.45346368  0.35862016  0.90168537    -0.20510
C474        C  0.42329922  0.35680533  0.88689484    -0.07080
C475        C  0.39665400  0.37339313  0.90074014     0.13790
C476        C  0.40152861  0.39308367  0.92809153    -0.20560
C477        C  0.43249725  0.39665200  0.94158926    -0.07080
C478        C  0.45846775  0.37810912  0.92879569     0.13780
C479        C  0.49148938  0.37783938  0.94380913    -0.23910
H480        H  0.47371750  0.34559611  0.89107444     0.15070
H481        H  0.38136032  0.40643231  0.93833447     0.15100
C482        C  0.36311180  0.36996254  0.88700109    -0.23860
H483        H  0.00713865  0.35911653  0.93277541     0.05310
H484        H  0.48807299  0.37144804  0.97098115     0.08530
H485        H  0.50499232  0.40235195  0.93918628     0.08530
H486        H  0.35467337  0.34330385  0.88794104     0.08520
H487        H  0.36385080  0.38020925  0.86084670     0.08520
H488        H  0.34482023  0.38348813  0.90159355     0.05290
C489        C  0.46994116  0.07716464  0.70678277    -0.20510
C490        C  0.49670700  0.06981919  0.68541348    -0.07080
C491        C  0.02875942  0.08231013  0.69237284     0.13790
C492        C  0.03286297  0.10081444  0.72061374    -0.20560
C493        C  0.00604848  0.10736042  0.74174570    -0.07080
C494        C  0.47424432  0.09559548  0.73479124     0.13780
C495        C  0.44485108  0.10194797  0.75732484    -0.23910
H496        H  0.44527075  0.06831223  0.70182480     0.15070
H497        H  0.05717767  0.11000712  0.72651573     0.15100
C498        C  0.05896474  0.07612480  0.67094037    -0.23860
H499        H  0.42178714  0.09048489  0.74850511     0.05310
H500        H  0.44198004  0.12909177  0.75818980     0.08530
H501        H  0.44816947  0.09132016  0.78287475     0.08530
H502        H  0.05702256  0.08756957  0.64546585     0.08520
H503        H  0.06193212  0.04899207  0.66991614     0.08520
H504        H  0.08163890  0.08723113  0.68092313     0.05290
C505        C  0.48510783  0.10650646  0.88334981    -0.20510
C506        C  0.01295794  0.10051624  0.86344875    -0.07080
C507        C  0.03229721  0.07381182  0.87299060     0.13790
C508        C  0.02269025  0.05368112  0.90196424    -0.20560
C509        C  0.49491469  0.06025886  0.92230197    -0.07080
C510        C  0.47636674  0.08782580  0.91276419     0.13780
C511        C  0.44665689  0.09805977  0.93254853    -0.23910
H512        H  0.46957740  0.12618460  0.87561429     0.15070
H513        H  0.03763175  0.03333308  0.90915799     0.15100
C514        C  0.06353150  0.06644854  0.85397137    -0.23860
H515        H  0.43333581  0.11764243  0.91928754     0.05310
H516        H  0.45371271  0.10784630  0.95643544     0.08530
H517        H  0.42970555  0.07623007  0.93751172     0.08530
H518        H  0.07038541  0.08500034  0.83317290     0.08520
H519        H  0.06079029  0.04146798  0.84381718     0.08520
H520        H  0.08405675  0.06667462  0.87100597     0.05290
C521        C  0.48654028  0.26269733  0.82201448    -0.20510
C522        C  0.45237326  0.26199569  0.81919224    -0.07080
C523        C  0.43557401  0.23254455  0.81064336     0.13790
C524        C  0.45336125  0.20433839  0.80507904    -0.20560
C525        C  0.48755175  0.20501599  0.80782025    -0.07080
C526        C  0.00435841  0.23447938  0.81644433     0.13780
C527        C  0.04106103  0.23635017  0.81893195    -0.23910
H528        H  0.99935119  0.28564779  0.82800060     0.15070
H529        H  0.44050532  0.18144723  0.79899614     0.15100
C530        C  0.39892156  0.23084441  0.80783373    -0.23860
H531        H  0.05038740  0.26155620  0.82495433     0.05310
H532        H  0.05309127  0.23033612  0.79480651     0.08530
H533        H  0.04809704  0.21841508  0.83882937     0.08530
H534        H  0.39217790  0.24902372  0.78800370     0.08520
H535        H  0.38672598  0.23673404  0.83192098     0.08520
H536        H  0.38956160  0.20573671  0.80153580     0.05290
C537        C  0.10703866  0.04248514  0.97172034    -0.20510
C538        C  0.10456027  0.01777080  0.99776133    -0.07080
C539        C  0.13094707  0.49748726  0.50322886     0.13790
C540        C  0.15900693  0.00158556  0.98169610    -0.20560
C541        C  0.16120580  0.02542660  0.95478976    -0.07080
C542        C  0.13529904  0.04678248  0.95023693     0.13780
C543        C  0.13749425  0.07413511  0.92310843    -0.23910
H544        H  0.08634518  0.05768903  0.96755083     0.15070
H545        H  0.17883811  0.48518132  0.98509994     0.15100
C546        C  0.12887602  0.47062827  0.53088623    -0.23860
H547        H  0.11546979  0.08916315  0.92394513     0.05310
H548        H  0.13947979  0.06354826  0.89829305     0.08530
H549        H  0.15938412  0.09097823  0.92612066     0.08530
H550        H  0.10814633  0.45246771  0.52731735     0.08520
H551        H  0.12488266  0.48190688  0.55519955     0.08520
H552        H  0.15173837  0.45692445  0.53163952     0.05290
C553        C  0.30712058  0.04442038  0.93598135    -0.20510
C554        C  0.28091975  0.02108794  0.94359786    -0.07080
C555        C  0.28406978  0.99554579  0.96835323     0.13790
C556        C  0.31286288  0.49461821  0.98562116    -0.20560
C557        C  0.33970295  0.01768358  0.97818152    -0.07080
C558        C  0.33661699  0.04276210  0.95257170     0.13780
C559        C  0.36484156  0.06599858  0.94046326    -0.23910
H560        H  0.30464216  0.06364361  0.91653945     0.15070
H561        H  0.31433638  0.47518405  0.50504626     0.15100
C562        C  0.25743628  0.46852623  0.97615639    -0.23860
H563        H  0.35827564  0.08367106  0.92006270     0.05310
H564        H  0.38419337  0.05057861  0.93029683     0.08530
H565        H  0.37352378  0.08085075  0.96102541     0.08530
H566        H  0.25129683  0.45629355  0.95303034     0.08520
H567        H  0.23527976  0.47916964  0.98725028     0.08520
H568        H  0.26508726  0.44909802  0.99431370     0.05290
C569        C  0.11650384  0.42582371  0.69050485    -0.20510
C570        C  0.14346931  0.44792842  0.68072702    -0.07080
C571        C  0.14077321  0.47109318  0.65355850     0.13790
C572        C  0.11203436  0.47098752  0.63640441    -0.20560
C573        C  0.08473984  0.44935470  0.64596822    -0.07080
C574        C  0.08703651  0.42630767  0.67349409     0.13780
C575        C  0.05835187  0.40336190  0.68594626    -0.23910
H576        H  0.11846034  0.40835824  0.71162879     0.15070
H577        H  0.11082063  0.48872042  0.61537470     0.15100
C578        C  0.16756685  0.49713318  0.64297931    -0.23860
H579        H  0.06410584  0.38790064  0.70834075     0.05310
H580        H  0.05152850  0.38633482  0.66636655     0.08530
H581        H  0.03725843  0.41831242  0.69280226     0.08530
H582        H  0.18884850  0.48519592  0.63159933     0.08520
H583        H  0.17475331  0.01098260  0.66481126     0.08520
H584        H  0.15961411  0.01552990  0.62392560     0.05290
C585        C  0.28297733  0.42254630  0.67122512    -0.20510
C586        C  0.26437753  0.45060238  0.67377717    -0.07080
C587        C  0.27513195  0.48052029  0.65578866     0.13790
C588        C  0.30287916  0.48104616  0.63384936    -0.20560
C589        C  0.32185191  0.45324418  0.63141579    -0.07080
C590        C  0.31258331  0.42402137  0.65161952     0.13850
C591        C  0.33415500  0.39501700  0.65517761    -0.23910
H592        H  0.27529441  0.39997190  0.68601473     0.15070
H593        H  0.31115703  0.00407791  0.62010032     0.15100
C594        C  0.25857021  0.01244465  0.66108154    -0.23860
H595        H  0.33859996  0.38981178  0.68188251     0.05310
H596        H  0.35848293  0.39974054  0.64181752     0.08530
H597        H  0.32160186  0.37254445  0.64589565     0.08530
H598        H  0.25939497  0.51846186  0.68763131     0.08520
H599        H  0.23278607  0.00994469  0.65441109     0.08520
H600        H  0.27071086  0.03367058  0.64562665     0.05290
C601        C  0.22332519  0.00576811  0.78466470    -0.20510
C602        C  0.20647978  0.47499285  0.78107176    -0.07080
C603        C  0.19292001  0.45660113  0.80986366     0.13790
C604        C  0.19664374  0.46939746  0.84138339    -0.20560
C605        C  0.21381649  0.99998275  0.84496382    -0.07080
C606        C  0.22707389  0.01852593  0.81617551     0.13780
C607        C  0.24438560  0.05215583  0.81849038    -0.23910
H608        H  0.23360100  0.01991874  0.76257957     0.15070
H609        H  0.18647947  0.45522864  0.86350098     0.15100
C610        C  0.17561925  0.42295298  0.80763640    -0.23860
H611        H  0.25193968  0.06383615  0.79347590     0.05310
H612        H  0.26682317  0.04980433  0.83263327     0.08530
H613        H  0.22775000  0.06892828  0.83123361     0.08530
H614        H  0.19226158  0.40611448  0.79500272     0.08520
H615        H  0.15319062  0.42525371  0.79347925     0.08520
H616        H  0.16801362  0.41136255  0.83267604     0.05290
C617        C  0.32571182  0.13112029  0.58293863    -0.20510
C618        C  0.33176145  0.15352596  0.60776846    -0.07080
C619        C  0.35368584  0.14485616  0.63267606     0.13790
C620        C  0.37265072  0.11706189  0.62892968    -0.20560
C621        C  0.36913797  0.09718504  0.60168051    -0.07080
C622        C  0.34378194  0.10290358  0.57984842     0.13780
C623        C  0.33594945  0.07961694  0.55284133    -0.23910
H624        H  0.30850962  0.13687446  0.56411942     0.15070
H625        H  0.39102094  0.11162390  0.64667423     0.15100
C626        C  0.35749926  0.16413562  0.66339626    -0.23860
H627        H  0.31373953  0.08657887  0.53985816     0.05310
H628        H  0.33128281  0.05388238  0.56389400     0.08530
H629        H  0.35654814  0.08028837  0.53379629     0.08530
H630        H  0.33972299  0.18389031  0.66530073     0.08520
H631        H  0.38284465  0.17551990  0.66336252     0.08520
H632        H  0.35298582  0.14703547  0.68589495     0.05290
C633        C  0.40997953  0.30983764  0.58557666    -0.20510
C634        C  0.39398396  0.33969233  0.58286830    -0.07080
C635        C  0.35906154  0.33805993  0.58357517     0.13790
C636        C  0.34180065  0.30764412  0.59068214    -0.20560
C637        C  0.35712071  0.27736578  0.58978782    -0.07080
C638        C  0.39225562  0.27865085  0.58719100     0.13780
C639        C  0.41192454  0.24825941  0.58438472    -0.23910
H640        H  0.43658614  0.31087882  0.58431022     0.15070
H641        H  0.31539548  0.30766257  0.59464157     0.15100
C642        C  0.33892444  0.36734633  0.57463835    -0.23860
H643        H  0.43770450  0.25495836  0.57539838     0.05310
H644        H  0.40131351  0.23154760  0.56621599     0.08530
H645        H  0.41321215  0.23526456  0.60921149     0.08530
H646        H  0.34499310  0.38833727  0.58989974     0.08520
H647        H  0.34369421  0.37513203  0.54788679     0.08520
H648        H  0.31209381  0.36138363  0.57843913     0.05290
C649        C  0.05166443  0.17780620  0.00675464    -0.20510
C650        C  0.07141610  0.18738747  0.53252861    -0.07080
C651        C  0.06768158  0.16949040  0.56378162     0.13790
C652        C  0.04571050  0.14154376  0.56786382    -0.20560
C653        C  0.02708684  0.13070331  0.54167435    -0.07080
C654        C  0.02961439  0.14963429  0.51088340     0.13780
C655        C  0.50992818  0.13988540  0.98208435    -0.23910
H656        H  0.05403749  0.19206347  0.98307279     0.15070
H657        H  0.04359033  0.12750088  0.59167803     0.15100
C658        C  0.08634238  0.17996575  0.59322397    -0.23860
H659        H  0.51573762  0.15672876  0.95958497     0.05310
H660        H  0.48349229  0.14137328  0.48918578     0.08530
H661        H  0.51512767  0.11422946  0.97552134     0.08530
H662        H  0.08189446  0.20624468  0.59800130     0.08520
H663        H  0.11297693  0.17717996  0.58846148     0.08520
H664        H  0.07858844  0.16452301  0.61622810     0.05290
C665        C  0.09333835  0.32787341  0.55008622    -0.20510
C666        C  0.09112100  0.31042096  0.52106758    -0.07080
C667        C  0.07418768  0.32406868  0.99426181     0.13790
C668        C  0.05782889  0.35361112  0.49816352    -0.20560
C669        C  0.05702227  0.36913633  0.52855378    -0.07080
C670        C  0.07656509  0.35695783  0.55426972     0.13780
C671        C  0.08024477  0.37450065  0.58618901    -0.23910
H672        H  0.10705993  0.31777542  0.57029046     0.15070
H673        H  0.04453471  0.36376975  0.97789905     0.15100
C674        C  0.07340693  0.30757328  0.96159861    -0.23860
H675        H  0.09926085  0.36358204  0.60153312     0.05310
H676        H  0.05691941  0.37225791  0.60163115     0.08530
H677        H  0.08773422  0.40112271  0.58039863     0.08530
H678        H  0.06086032  0.28250525  0.96520332     0.08520
H679        H  0.09887468  0.30525495  0.95133439     0.08520
H680        H  0.06005668  0.32214241  0.94295401     0.05290
C681        C  0.20898545  0.22969407  0.51907266    -0.20510
C682        C  0.18395992  0.23766962  0.54199117    -0.07080
C683        C  0.19087870  0.24041600  0.57581397     0.13790
C684        C  0.22258559  0.23490307  0.58602881    -0.20560
C685        C  0.24761113  0.22697135  0.56320391    -0.07080
C686        C  0.24089314  0.22454514  0.52930998     0.13780
C687        C  0.26734616  0.21631987  0.50415418    -0.23910
H688        H  0.20350745  0.22745608  0.99319840     0.15070
H689        H  0.22798265  0.23693173  0.61195860     0.15100
C690        C  0.16469995  0.24891128  0.60120776    -0.23860
H691        H  0.25799534  0.21510841  0.97879021     0.05310
H692        H  0.27690113  0.19183269  0.51133365     0.08530
H693        H  0.28776022  0.23567718  0.50318742     0.08530
H694        H  0.14397287  0.22995092  0.60215392     0.08520
H695        H  0.15556567  0.27366401  0.59438584     0.08520
H696        H  0.17415755  0.24973199  0.62655298     0.05290
C697        C  0.10478370  0.77703161  0.52081922     0.02920
C698        C  0.13823485  0.77330190  0.02591456    -0.13230
C699        C  0.15024488  0.74153092  0.03090452     0.00420
C700        C  0.12868898  0.71337893  0.03037722    -0.11750
C701        C  0.09495788  0.71674654  0.52686556     0.02920
C702        C  0.08329336  0.74859337  0.52143402    -0.11170
H703        H  0.15457991  0.79511652  0.02758727     0.08510
H704        H  0.13786565  0.68890088  0.03481849     0.06040
H705        H  0.05714857  0.75135430  0.51993589     0.05890
C706        C  0.31963811  0.68753537  0.10256689     0.02920
C707        C  0.28840055  0.69170622  0.09026974    -0.13230
C708        C  0.28071015  0.72224845  0.07553893     0.00420
C709        C  0.30424563  0.74878593  0.07332994    -0.11750
C710        C  0.33459812  0.74653733  0.08865361     0.02920
C711        C  0.34167143  0.71550654  0.10338085    -0.11170
H712        H  0.27060364  0.67078602  0.09069406     0.08510
H713        H  0.29820952  0.77149649  0.06001802     0.06040
H714        H  0.36449835  0.71247976  0.11483783     0.05890
C715        C  0.17419947  0.94733615  0.19900344     0.02920
C716        C  0.17487671  0.95703290  0.23206929    -0.13230
C717        C  0.20504875  0.96217008  0.24710872     0.00420
C718        C  0.23447872  0.95833689  0.22835002    -0.11750
C719        C  0.23392354  0.94870766  0.19543736     0.02920
C720        C  0.20382952  0.94189016  0.18147686    -0.11170
H721        H  0.15219518  0.96244667  0.24529460     0.08510
H722        H  0.25784934  0.96404251  0.23894256     0.06040
H723        H  0.20356002  0.93475956  0.15590778     0.05890
C724        C  0.25000054  0.52381803  0.42628190     0.02920
C725        C  0.22160464  0.53072449  0.44489853    -0.13230
C726        C  0.19072300  0.52642199  0.43183372     0.00420
C727        C  0.18844500  0.51718904  0.39883975    -0.11750
C728        C  0.21689290  0.51208666  0.37902133     0.02920
C729        C  0.24773448  0.51508652  0.39309135    -0.11170
H730        H  0.22333878  0.53686890  0.47067852     0.08510
H731        H  0.16452865  0.51244316  0.38904859     0.06040
H732        H  0.26960345  0.50877981  0.37897093     0.05890
C733        C  0.01169471  0.62493137  0.27215858     0.02920
C734        C  0.00429059  0.65836744  0.27358789    -0.13230
C735        C  0.00425726  0.67367284  0.30398694     0.00420
C736        C  0.01307623  0.65571062  0.33256626    -0.11750
C737        C  0.01821195  0.62148738  0.33192507     0.02920
C738        C  0.01828083  0.60648707  0.30132000    -0.11170
H739        H  0.99624770  0.67167714  0.25161776     0.08510
H740        H  0.01143621  0.66722730  0.35628018     0.06040
H741        H  0.02015076  0.57983168  0.30058881     0.05890
C742        C  0.42197104  0.84016822  0.35513800     0.02920
C743        C  0.43120564  0.80718087  0.35326442    -0.13230
C744        C  0.43565549  0.79338650  0.32222995     0.00420
C745        C  0.43016760  0.81241818  0.29317869    -0.11750
C746        C  0.42438890  0.84628143  0.29457194     0.02920
C747        C  0.41915696  0.85970085  0.32564481    -0.11170
H748        H  0.43661897  0.79292871  0.37572744     0.08510
H749        H  0.43355781  0.80165293  0.26925704     0.06040
H750        H  0.41583102  0.88609606  0.32689481     0.05890
O751        O  0.02969273  0.91838351  0.01113739    -0.80340
O752        O  0.43084860  0.95976150  0.16885568    -0.81890
O753        O  0.03272106  0.93076771  0.12451907    -0.78910
O754        O  0.44109454  0.87715550  0.09160648    -0.77290
O755        O  0.40010789  0.89393486  0.05936979    -0.79080
O756        O  0.05233738  0.98465398  0.11532014    -0.80020
O757        O  0.46006552  0.91645979  0.15182012    -0.81340
O758        O  0.01816530  0.89361663  0.06314517    -0.81630
Eu759      Eu  0.48088179  0.92677420  0.09449183     2.39200
O760        O  0.42839003  0.94743158  0.09704309    -0.89140
O761        O  0.01560855  0.96435799  0.06017398    -0.92750
C762        C  0.03361523  0.89560301  0.03441000     1.01940
C763        C  0.44301932  0.93109292  0.17386363     1.01760
C764        C  0.05438606  0.95482233  0.12776545     1.01710
C765        C  0.41335604  0.87209765  0.07764488     0.99570
H766        H  0.49118305  0.97825945  0.13933950     0.29310
O767        O  0.48297953  0.97962196  0.11724861    -1.01530
H768        H  0.46137809  0.90947465  0.03150226     0.29350
O769        O  0.46175941  0.93122028  0.04043278    -1.04070
O770        O  0.39796475  0.54968252  0.11771659    -0.81300
O771        O  0.49852725  0.01055479  0.45813116    -0.80830
O772        O  0.01231116  0.54600733  0.13397825    -0.79270
O773        O  0.36046515  0.94896606  0.08479087    -0.82610
O774        O  0.41398111  0.92233200  0.99098122    -0.80470
O775        O  0.06578417  0.52012316  0.04353697    -0.79120
O776        O  0.48137676  0.59155921  0.03378073    -0.80640
O777        O  0.39181582  0.53641974  0.00034308    -0.82560
O778        O  0.02455862  0.57558791  0.06372788    -0.79300
O779        O  0.37223814  0.98260349  0.00942225    -0.81980
O780        O  0.46062365  0.53475269  0.15679026    -0.77710
O781        O  0.05256917  0.99155306  0.99793494    -0.77740
O782        O  0.46608271  0.93456578  0.46894716    -0.77390
O783        O  0.37482680  0.97676209  0.13048489    -0.80880
O784        O  0.40697593  0.57404275  0.06506897    -0.80310
O785        O  0.46785641  0.55243161  0.47563341    -0.78640
Eu786      Eu  0.43020264  0.99972414  0.12003263     2.39770
Eu787      Eu  0.49643246  0.96869597  0.00615696     2.39570
Eu788      Eu  0.01649493  0.51714982  0.08206345     2.38400
Eu789      Eu  0.40874803  0.95170781  0.04337120     2.39880
Eu790      Eu  0.44340862  0.54118665  0.03153963     2.39790
O791        O  0.44295101  0.98867828  0.00828402    -0.93050
O792        O  0.46371557  0.53762778  0.08536289    -0.91940
C793        C  0.39310334  0.57211679  0.09466738     1.02120
C794        C  0.48648185  0.53947683  0.45379316     1.00840
C795        C  0.48966430  0.54886079  0.15690834     1.00230
C796        C  0.35455605  0.95934347  0.11437264     1.02240
C797        C  0.43757623  0.91947817  0.46881209     1.01160
C798        C  0.07230396  0.00936952  0.01440565     1.00010
C799        C  0.00949669  0.59733166  0.04658267     1.00060
C800        C  0.37015180  0.51233223  0.99678775     1.02680
H801        H  0.01078230  0.53630695  0.01556493     0.30050
O802        O  0.49622996  0.52086408  0.02908531    -1.05210
H803        H  0.38721345  0.51100935  0.06755999     0.32100
O804        O  0.40939219  0.00379269  0.06633896    -1.07770
C805        C  0.46256971  0.89125394  0.21584459    -0.20510
C806        C  0.43813350  0.91276467  0.20690243    -0.07080
C807        C  0.40961645  0.91380209  0.22826853     0.13790
C808        C  0.40534926  0.89134694  0.25638896    -0.20560
C809        C  0.42929957  0.86875449  0.26416014    -0.07080
C810        C  0.45900770  0.86990367  0.24434996     0.13780
C811        C  0.48791911  0.85002279  0.25361049    -0.23910
H812        H  0.48484081  0.89091412  0.20015655     0.15070
H813        H  0.38323750  0.89139891  0.27244549     0.15100
C814        C  0.38359154  0.93805739  0.22162439    -0.23860
H815        H  0.51025914  0.85763558  0.23758639     0.05310
H816        H  0.48277566  0.82321730  0.25038965     0.08530
H817        H  0.49380968  0.85398055  0.27977960     0.08530
H818        H  0.37418214  0.93495626  0.19658553     0.08520
H819        H  0.39412377  0.96384404  0.22294895     0.08520
H820        H  0.36250189  0.93445867  0.24022149     0.05290
C821        C  0.45346293  0.85862004  0.40168575    -0.20510
C822        C  0.42329859  0.85680532  0.38689501    -0.07080
C823        C  0.39665330  0.87339306  0.40074027     0.13790
C824        C  0.40152770  0.89308334  0.42809191    -0.20560
C825        C  0.43249622  0.89665152  0.44158990    -0.07080
C826        C  0.45846682  0.87810880  0.42879626     0.13780
C827        C  0.49148842  0.87783904  0.44380978    -0.23910
H828        H  0.47371682  0.84559608  0.39107485     0.15070
H829        H  0.38135937  0.90643195  0.43833481     0.15100
C830        C  0.36311123  0.86996270  0.38700089    -0.23860
H831        H  0.00713772  0.85911623  0.43277603     0.05310
H832        H  0.48807198  0.87144759  0.47098177     0.08530
H833        H  0.50499134  0.90235163  0.43918705     0.08530
H834        H  0.35467273  0.84330405  0.38794054     0.08520
H835        H  0.36385048  0.88020965  0.36084656     0.08520
H836        H  0.34481958  0.88348823  0.40159331     0.05290
C837        C  0.46993976  0.57716402  0.20678314    -0.20510
C838        C  0.49670560  0.56981855  0.18541386    -0.07080
C839        C  0.02875793  0.58230943  0.19237321     0.13790
C840        C  0.03286150  0.60081381  0.22061403    -0.20560
C841        C  0.00604705  0.60735988  0.24174595    -0.07080
C842        C  0.47424295  0.59559496  0.23479154     0.13780
C843        C  0.44484974  0.60194755  0.25732514    -0.23910
H844        H  0.44526935  0.56831159  0.20182517     0.15070
H845        H  0.05717622  0.61000648  0.22651598     0.15100
C846        C  0.05896327  0.57612401  0.17094080    -0.23860
H847        H  0.42178579  0.59048444  0.24850548     0.05310
H848        H  0.44197873  0.62909136  0.25819001     0.08530
H849        H  0.44816816  0.59131983  0.28287509     0.08530
H850        H  0.05702120  0.58756883  0.14546629     0.08520
H851        H  0.06193057  0.54899127  0.16991656     0.08520
H852        H  0.08163745  0.58723025  0.18092361     0.05290
C853        C  0.48510776  0.60650610  0.38334997    -0.20510
C854        C  0.01295782  0.60051592  0.36344880    -0.07080
C855        C  0.03229720  0.57381154  0.37299054     0.13790
C856        C  0.02269041  0.55368081  0.40196422    -0.20560
C857        C  0.49491487  0.56025852  0.42230207    -0.07080
C858        C  0.47636682  0.58782542  0.41276436     0.13780
C859        C  0.44665697  0.59805927  0.43254877    -0.23910
H860        H  0.46957725  0.62618420  0.37561453     0.15070
H861        H  0.03763198  0.53333280  0.40915790     0.15100
C862        C  0.06353142  0.56644835  0.35397114    -0.23860
H863        H  0.43333571  0.61764178  0.41928777     0.05310
H864        H  0.45371282  0.60784593  0.45643562     0.08530
H865        H  0.42970580  0.57622946  0.43751208     0.08530
H866        H  0.07038512  0.58500012  0.33317258     0.08520
H867        H  0.06079024  0.54146775  0.34381702     0.08520
H868        H  0.08405680  0.56667457  0.37100560     0.05290
C869        C  0.48653999  0.76269709  0.32201466    -0.20510
C870        C  0.45237296  0.76199561  0.31919252    -0.07080
C871        C  0.43557355  0.73254452  0.31064374     0.13790
C872        C  0.45336063  0.70433826  0.30507941    -0.20560
C873        C  0.48755114  0.70501570  0.30782050    -0.07080
C874        C  0.00435797  0.73447901  0.31644451     0.13780
C875        C  0.04106061  0.73634966  0.31893195    -0.23910
H876        H  0.99935103  0.78564748  0.32800072     0.15070
H877        H  0.44050457  0.68144715  0.29899656     0.15100
C878        C  0.39892109  0.73084456  0.30783419    -0.23860
H879        H  0.05038712  0.76155567  0.32495424     0.05310
H880        H  0.05309070  0.73033551  0.29480647     0.08530
H881        H  0.04809665  0.71841458  0.33882936     0.08530
H882        H  0.39217748  0.74902389  0.28800416     0.08520
H883        H  0.38672559  0.73673427  0.33192145     0.08520
H884        H  0.38956099  0.70573689  0.30153630     0.05290
C885        C  0.10703837  0.54248539  0.47172093    -0.20510
C886        C  0.10456009  0.51777069  0.49776156    -0.07080
C887        C  0.13094710  0.99748719  0.00322876     0.13790
C888        C  0.15900700  0.50158622  0.48169640    -0.20560
C889        C  0.16120578  0.52542762  0.45479039    -0.07080
C890        C  0.13529883  0.54678328  0.45023769     0.13780
C891        C  0.13749389  0.57413621  0.42310951    -0.23910
H892        H  0.08634477  0.55768916  0.46755157     0.15070
H893        H  0.17883806  0.98518121  0.48509927     0.15100
C894        C  0.12887597  0.97062859  0.03088653    -0.23860
H895        H  0.11546923  0.58916397  0.42394625     0.05310
H896        H  0.13947972  0.56354969  0.39829399     0.08530
H897        H  0.15938354  0.59097953  0.42612206     0.08530
H898        H  0.10814609  0.95246814  0.02731804     0.08520
H899        H  0.12488289  0.98190761  0.05519967     0.08520
H900        H  0.15173819  0.95692456  0.03163989     0.05290
C901        C  0.30712058  0.54442157  0.43598231    -0.20510
C902        C  0.28091966  0.52108923  0.44359872    -0.07080
C903        C  0.28406963  0.49554683  0.46835386     0.13790
C904        C  0.31286253  0.99461875  0.48562154    -0.20560
C905        C  0.33970301  0.51768407  0.47818198    -0.07080
C906        C  0.33661707  0.54276290  0.45257244     0.13780
C907        C  0.36484171  0.56599924  0.44046396    -0.23910
H908        H  0.30464219  0.56364497  0.41654058     0.15070
H909        H  0.31433648  0.97518359  0.00504601     0.15100
C910        C  0.25743589  0.96852705  0.47615659    -0.23860
H911        H  0.35827574  0.58367202  0.42006368     0.05310
H912        H  0.38419322  0.55057918  0.43029710     0.08530
H913        H  0.37352430  0.58085111  0.46102617     0.08530
H914        H  0.25129633  0.95629457  0.45303046     0.08520
H915        H  0.23527946  0.97917052  0.48725062     0.08520
H916        H  0.26508681  0.94909868  0.49431375     0.05290
C917        C  0.11650422  0.92582420  0.19050473    -0.20510
C918        C  0.14346955  0.94792920  0.18072724    -0.07080
C919        C  0.14077335  0.97109428  0.15355902     0.13790
C920        C  0.11203450  0.97098865  0.13640486    -0.20560
C921        C  0.08474012  0.94935545  0.14596826    -0.07080
C922        C  0.08703692  0.92630812  0.17349388     0.13780
C923        C  0.05835247  0.90336193  0.18594568    -0.23910
H924        H  0.11846081  0.90835848  0.21162844     0.15070
H925        H  0.11082071  0.98872180  0.11537537     0.15100
C926        C  0.16756693  0.99713450  0.14298022    -0.23860
H927        H  0.06410651  0.88790048  0.20834002     0.05310
H928        H  0.05152939  0.88633502  0.16636572     0.08530
H929        H  0.03725882  0.91831211  0.19280179     0.08530
H930        H  0.18884879  0.98519747  0.13160036     0.08520
H931        H  0.17475288  0.51098529  0.16481455     0.08520
H932        H  0.15961446  0.51553317  0.12392854     0.05290
C933        C  0.28297655  0.92254597  0.17122305    -0.20510
C934        C  0.26437773  0.95060261  0.17377696    -0.07080
C935        C  0.27513255  0.98052088  0.15578929     0.13790
C936        C  0.30287961  0.98104696  0.13384976    -0.20560
C937        C  0.32185148  0.95324451  0.13141454    -0.07080
C938        C  0.31258203  0.92402084  0.15161655     0.13850
C939        C  0.33415232  0.89501505  0.15517147    -0.23910
H940        H  0.27529311  0.89997107  0.18601159     0.15070
H941        H  0.31115940  0.50408099  0.12010421     0.15100
C942        C  0.25857276  0.51244609  0.16108618    -0.23860
H943        H  0.33859836  0.88980773  0.18187581     0.05310
H944        H  0.35847982  0.89973815  0.14181043     0.08530
H945        H  0.32159758  0.87254395  0.14588832     0.08530
H946        H  0.25939620  0.01846194  0.18763290     0.08520
H947        H  0.23278820  0.50994714  0.15441654     0.08520
H948        H  0.27071337  0.53367257  0.14563204     0.05290
C949        C  0.22332596  0.50576950  0.28466531    -0.20510
C950        C  0.20648029  0.97499350  0.28107184    -0.07080
C951        C  0.19292052  0.95660182  0.30986377     0.13790
C952        C  0.19664424  0.96939819  0.34138348    -0.20560
C953        C  0.21381674  0.49998437  0.34496443    -0.07080
C954        C  0.22707421  0.51852753  0.31617613     0.13780
C955        C  0.24438552  0.55215762  0.31849106    -0.23910
H956        H  0.23360183  0.51992013  0.26258020     0.15070
H957        H  0.18647996  0.95522939  0.36350109     0.15100
C958        C  0.17561972  0.92295367  0.30763656    -0.23860
H959        H  0.25193967  0.56383794  0.29347660     0.05310
H960        H  0.26682299  0.54980640  0.33263415     0.08530
H961        H  0.22774961  0.56892990  0.33123411     0.08530
H962        H  0.19226203  0.90611514  0.29500291     0.08520
H963        H  0.15319108  0.92525442  0.29347941     0.08520
H964        H  0.16801408  0.91136329  0.33267621     0.05290
C965        C  0.32571126  0.63111975  0.08293971    -0.20510
C966        C  0.33176123  0.65352557  0.10776935    -0.07080
C967        C  0.35368597  0.64485588  0.13267666     0.13790
C968        C  0.37265080  0.61706158  0.12893011    -0.20560
C969        C  0.36913767  0.59718458  0.10168110    -0.07080
C970        C  0.34378132  0.60290301  0.07984938     0.13780
C971        C  0.33594844  0.57961618  0.05284256    -0.23910
H972        H  0.30850879  0.63687380  0.06412073     0.15070
H973        H  0.39102127  0.61162367  0.14667441     0.15100
C974        C  0.35749980  0.66413547  0.16339671    -0.23860
H975        H  0.31373844  0.58657814  0.03985954     0.05310
H976        H  0.33128173  0.55388172  0.06389548     0.08530
H977        H  0.35654698  0.58028731  0.03379736     0.08530
H978        H  0.33972356  0.68389016  0.16530134     0.08520
H979        H  0.38284522  0.67551976  0.16336260     0.08520
H980        H  0.35298665  0.64703541  0.18589550     0.05290
C981        C  0.40998001  0.80983743  0.08557806    -0.20510
C982        C  0.39398471  0.83969207  0.08286617    -0.07080
C983        C  0.35906236  0.83805957  0.08356957     0.13790
C984        C  0.34180109  0.80764406  0.09067713    -0.20560
C985        C  0.35712109  0.77736547  0.08978638    -0.07080
C986        C  0.39225615  0.77865055  0.08719284     0.13780
C987        C  0.41192563  0.74825901  0.08439114    -0.23910
H988        H  0.43658660  0.81087858  0.08431442     0.15070
H989        H  0.31539581  0.80766300  0.09463486     0.15100
C990        C  0.33892570  0.86734541  0.07462917    -0.23860
H991        H  0.43770628  0.75495755  0.07540697     0.05310
H992        H  0.40131672  0.73154564  0.06622259     0.08530
H993        H  0.41321100  0.73526614  0.10921919     0.08530
H994        H  0.34499118  0.88833670  0.08989135     0.08520
H995        H  0.34369886  0.87513083  0.04787794     0.08520
H996        H  0.31209487  0.86138208  0.07842604     0.05290
C997        C  0.05166456  0.67780587  0.50675457    -0.20510
C998        C  0.07141575  0.68738774  0.03252894    -0.07080
C999        C  0.06768114  0.66949074  0.06378198     0.13790
C1000       C  0.04571001  0.64154415  0.06786423    -0.20560
C1001       C  0.02708639  0.63070367  0.04167474    -0.07080
C1002       C  0.02961401  0.64963458  0.01088376     0.13780
C1003       C  0.50992825  0.63988504  0.48208442    -0.23910
H1004       H  0.05403757  0.69206314  0.48307273     0.15070
H1005       H  0.04358979  0.62750131  0.09167845     0.15100
C1006       C  0.08634195  0.67996609  0.09322433    -0.23860
H1007       H  0.51573765  0.65672839  0.45958503     0.05310
H1008       H  0.48349198  0.64137356  0.98918600     0.08530
H1009       H  0.51512774  0.61422910  0.47552140     0.08530
H1010       H  0.08189414  0.70624506  0.09800158     0.08520
H1011       H  0.11297648  0.67718017  0.08846187     0.08520
H1012       H  0.07858792  0.66452344  0.11622849     0.05290
C1013       C  0.09333884  0.82787382  0.05008599    -0.20510
C1014       C  0.09112135  0.81042121  0.02106746    -0.07080
C1015       C  0.07418689  0.82406837  0.49426195     0.13790
C1016       C  0.05782933  0.85361143  0.99816326    -0.20560
C1017       C  0.05702283  0.86913679  0.02855345    -0.07080
C1018       C  0.07656570  0.85695834  0.05426937     0.13780
C1019       C  0.08024552  0.87450130  0.08618856    -0.23910
H1020       H  0.10706043  0.81777588  0.07029025     0.15070
H1021       H  0.04453384  0.86376940  0.47789927     0.15100
C1022       C  0.07340641  0.80757317  0.46159864    -0.23860
H1023       H  0.09926163  0.86358273  0.10153266     0.05310
H1024       H  0.05692021  0.87225867  0.10163078     0.08530
H1025       H  0.08773500  0.90112334  0.08039805     0.08530
H1026       H  0.06085997  0.78250505  0.46520316     0.08520
H1027       H  0.09887423  0.80525508  0.45133450     0.08520
H1028       H  0.06005614  0.82214231  0.44295405     0.05290
C1029       C  0.20898539  0.72969385  0.01907265    -0.20510
C1030       C  0.18395988  0.73766926  0.04199126    -0.07080
C1031       C  0.19087871  0.74041530  0.07581410     0.13790
C1032       C  0.22258557  0.73490209  0.08602887    -0.20560
C1033       C  0.24761111  0.72697054  0.06320386    -0.07080
C1034       C  0.24089308  0.72454473  0.02930989     0.13780
C1035       C  0.26734604  0.71631961  0.00415397    -0.23910
H1036       H  0.20350713  0.72745607  0.49319857     0.15070
H1037       H  0.22798266  0.73693051  0.11195869     0.15100
C1038       C  0.16470003  0.74891057  0.10120797    -0.23860
H1039       H  0.25799522  0.71510895  0.47879043     0.05310
H1040       H  0.27690100  0.69183237  0.01133324     0.08530
H1041       H  0.28776011  0.73567688  0.00318727     0.08530
H1042       H  0.14397285  0.72995034  0.10215404     0.08520
H1043       H  0.15556588  0.77366339  0.09438619     0.08520
H1044       H  0.17415766  0.74973107  0.12655320     0.05290
C1045       C  0.10478414  0.77703158  0.02081937     0.02920
C1046       C  0.13823442  0.77330223  0.52591444    -0.13230
C1047       C  0.15024472  0.74153139  0.53090440     0.00420
C1048       C  0.12868907  0.71337922  0.53037700    -0.11750
C1049       C  0.09495782  0.71674654  0.02686590     0.02920
C1050       C  0.08329355  0.74859348  0.02143432    -0.11170
H1051       H  0.15457929  0.79511699  0.52758724     0.08510
H1052       H  0.13786594  0.68890125  0.53481827     0.06040
H1053       H  0.05714880  0.75135462  0.01993623     0.05890
C1054       C  0.31963937  0.68753645  0.60256332     0.02920
C1055       C  0.28840179  0.69170767  0.59026620    -0.13230
C1056       C  0.28071026  0.72225111  0.57553876     0.00420
C1057       C  0.30424450  0.74878966  0.57333322    -0.11750
C1058       C  0.33459772  0.74653923  0.58865468     0.02920
C1059       C  0.34167251  0.71550757  0.60337843    -0.11170
H1060       H  0.27060532  0.67078724  0.59068882     0.08510
H1061       H  0.29820735  0.77150250  0.56002596     0.06040
H1062       H  0.36450041  0.71248089  0.61483403     0.05890
C1063       C  0.17419852  0.94733493  0.69900248     0.02920
C1064       C  0.17487550  0.95703138  0.73206847    -0.13230
C1065       C  0.20504747  0.96216873  0.74710801     0.00420
C1066       C  0.23447749  0.95833603  0.72834944    -0.11750
C1067       C  0.23392254  0.94870752  0.69543668     0.02920
C1068       C  0.20382876  0.94188958  0.68147593    -0.11170
H1069       H  0.15219387  0.96244476  0.74529380     0.08510
H1070       H  0.25784804  0.96404157  0.73894218     0.06040
H1071       H  0.20355958  0.93475877  0.65590691     0.05890
C1072       C  0.25000047  0.52381755  0.92628194     0.02920
C1073       C  0.22160464  0.53072409  0.94489866    -0.13230
C1074       C  0.19072294  0.52642170  0.93183396     0.00420
C1075       C  0.18844481  0.51718871  0.89884000    -0.11750
C1076       C  0.21689264  0.51208626  0.87902149     0.02920
C1077       C  0.24773428  0.51508604  0.89309140    -0.11170
H1078       H  0.22333890  0.53686854  0.97067862     0.08510
H1079       H  0.16452842  0.51244290  0.88904891     0.06040
H1080       H  0.26960319  0.50877930  0.87897091     0.05890
C1081       C  0.01169572  0.62493185  0.77215847     0.02920
C1082       C  0.00429151  0.65836791  0.77358771    -0.13230
C1083       C  0.00425773  0.67367325  0.80398680     0.00420
C1084       C  0.01307638  0.65571104  0.83256624    -0.11750
C1085       C  0.01821215  0.62148781  0.83192511     0.02920
C1086       C  0.01828144  0.60648752  0.80132001    -0.11170
H1087       H  0.99624884  0.67167761  0.75161748     0.08510
H1088       H  0.01143608  0.66722771  0.85628015     0.06040
H1089       H  0.02015137  0.57983213  0.80058885     0.05890
C1090       C  0.42197140  0.84016833  0.85513776     0.02920
C1091       C  0.43120564  0.80718090  0.85326407    -0.13230
C1092       C  0.43565504  0.79338653  0.82222957     0.00420
C1093       C  0.43016697  0.81241829  0.79317840    -0.11750
C1094       C  0.42438901  0.84628170  0.79457173     0.02920
C1095       C  0.41915747  0.85970110  0.82564467    -0.11170
H1096       H  0.43661905  0.79292867  0.87572702     0.08510
H1097       H  0.43355663  0.80165295  0.76925674     0.06040
H1098       H  0.41583199  0.88609637  0.82689481     0.05890
O1099       O  0.02969186  0.91838303  0.51113775    -0.80340
O1100       O  0.43085100  0.95976321  0.66885663    -0.81890
O1101       O  0.03271980  0.93076654  0.62451924    -0.78910
O1102       O  0.44109230  0.87715719  0.59160905    -0.77290
O1103       O  0.40010388  0.89393482  0.55937323    -0.79080
O1104       O  0.05233650  0.98465270  0.61532031    -0.80020
O1105       O  0.46006659  0.91646078  0.65182074    -0.81340
O1106       O  0.01816405  0.89361613  0.56314545    -0.81630
Eu1107     Eu  0.48088140  0.92677452  0.59449212     2.39200
O1108       O  0.42839014  0.94743242  0.59704380    -0.89140
O1109       O  0.01560794  0.96435757  0.56017421    -0.92750
C1110       C  0.03361413  0.89560249  0.53441036     1.01940
C1111       C  0.44302134  0.93109445  0.67386454     1.01760
C1112       C  0.05438492  0.95482097  0.62776554     1.01710
C1113       C  0.41335304  0.87209872  0.57764909     0.99570
H1114       H  0.49118390  0.97825984  0.63933980     0.29310
O1115       O  0.48298013  0.97962231  0.61724891    -1.01530
H1116       H  0.46137686  0.90947363  0.53150300     0.29350
O1117       O  0.46175849  0.93121955  0.54043322    -1.04070
O1118       O  0.39796441  0.54968266  0.61771607    -0.81300
O1119       O  0.49852761  0.01055553  0.95813110    -0.80830
O1120       O  0.01231250  0.54600765  0.63397795    -0.79270
O1121       O  0.36046566  0.94896707  0.58479396    -0.82610
O1122       O  0.41398032  0.92233126  0.49098240    -0.80470
O1123       O  0.06578441  0.52012273  0.54353651    -0.79120
O1124       O  0.48137680  0.59155881  0.53378072    -0.80640
O1125       O  0.39181593  0.53641960  0.50034291    -0.82560
O1126       O  0.02455913  0.57558778  0.56372741    -0.79300
O1127       O  0.37223750  0.98260393  0.50942356    -0.81980
O1128       O  0.46062346  0.53475281  0.65679019    -0.77710
O1129       O  0.05256867  0.99155242  0.49793521    -0.77740
O1130       O  0.46608381  0.93456598  0.96894671    -0.77390
O1131       O  0.37482868  0.97676160  0.63048849    -0.80880
O1132       O  0.40697605  0.57404266  0.56506840    -0.80310
O1133       O  0.46785625  0.55243195  0.97563344    -0.78640
Eu1134     Eu  0.43020353  0.99972502  0.62003315     2.39770
Eu1135     Eu  0.49643177  0.96869540  0.50615726     2.39570
Eu1136     Eu  0.01649546  0.51714979  0.58206323     2.38400
Eu1137     Eu  0.40874713  0.95170754  0.54337240     2.39880
Eu1138     Eu  0.44340864  0.54118632  0.53153952     2.39790
O1139       O  0.44295035  0.98867776  0.50828493    -0.93050
O1140       O  0.46371540  0.53762768  0.58536286    -0.91940
C1141       C  0.39310322  0.57211683  0.59466668     1.02120
C1142       C  0.48648172  0.53947723  0.95379316     1.00840
C1143       C  0.48966419  0.54886071  0.65690838     1.00230
C1144       C  0.35455759  0.95934323  0.61437646     1.02240
C1145       C  0.43757722  0.91947861  0.96881129     1.01160
C1146       C  0.07230354  0.00936887  0.51440588     1.00010
C1147       C  0.00949711  0.59733146  0.54658223     1.00060
C1148       C  0.37015174  0.51233223  0.49678772     1.02680
H1149       H  0.01078259  0.53630655  0.51556458     0.30050
O1150       O  0.49622991  0.52086373  0.52908538    -1.05210
H1151       H  0.38721323  0.51100933  0.56755986     0.32100
O1152       O  0.40939210  0.00379291  0.56633972    -1.07770
C1153       C  0.46257055  0.89125339  0.71584427    -0.20510
C1154       C  0.43813573  0.91276632  0.70690339    -0.07080
C1155       C  0.40961984  0.91380579  0.72827071     0.13790
C1156       C  0.40535145  0.89134951  0.75639016    -0.20560
C1157       C  0.42930023  0.86875490  0.76416006    -0.07080
C1158       C  0.45900798  0.86990276  0.74434933     0.13780
C1159       C  0.48791858  0.85002028  0.75360901    -0.23910
H1160       H  0.48484106  0.89091220  0.70015554     0.15070
H1161       H  0.38324030  0.89140287  0.77244739     0.15100
C1162       C  0.38359813  0.93806551  0.72162979    -0.23860
H1163       H  0.51025875  0.85763260  0.73758494     0.05310
H1164       H  0.48277403  0.82321511  0.75038735     0.08530
H1165       H  0.49380961  0.85397696  0.77977821     0.08530
H1166       H  0.37418784  0.93496910  0.69659071     0.08520
H1167       H  0.39413394  0.96385050  0.72295685     0.08520
H1168       H  0.36250856  0.93446765  0.74022706     0.05290
C1169       C  0.45346358  0.85862003  0.90168535    -0.20510
C1170       C  0.42329915  0.85680533  0.88689475    -0.07080
C1171       C  0.39665395  0.87339316  0.90074003     0.13790
C1172       C  0.40152855  0.89308366  0.92809143    -0.20560
C1173       C  0.43249718  0.89665191  0.94158920    -0.07080
C1174       C  0.45846763  0.87810894  0.92879571     0.13780
C1175       C  0.49148919  0.87783902  0.94380929    -0.23910
H1176       H  0.47371737  0.84559593  0.89107445     0.15070
H1177       H  0.38136028  0.90643236  0.93833433     0.15100
C1178       C  0.36311177  0.86996264  0.88700090    -0.23860
H1179       H  0.00713835  0.85911629  0.93277564     0.05310
H1180       H  0.48807268  0.87144766  0.97098130     0.08530
H1181       H  0.50499225  0.90235154  0.93918652     0.08530
H1182       H  0.35467329  0.84330397  0.88794082     0.08520
H1183       H  0.36385085  0.88020936  0.86084651     0.08520
H1184       H  0.34482020  0.88348827  0.90159333     0.05290
C1185       C  0.46993971  0.57716393  0.70678320    -0.20510
C1186       C  0.49670553  0.56981848  0.68541389    -0.07080
C1187       C  0.02875925  0.58231010  0.69237294     0.13790
C1188       C  0.03286275  0.60081440  0.72061386    -0.20560
C1189       C  0.00604824  0.60736036  0.74174579    -0.07080
C1190       C  0.47424291  0.59559493  0.73479157     0.13780
C1191       C  0.44484971  0.60194750  0.75732519    -0.23910
H1192       H  0.44526930  0.56831145  0.70182529     0.15070
H1193       H  0.05717744  0.61000709  0.72651588     0.15100
C1194       C  0.05896460  0.57612479  0.67094052    -0.23860
H1195       H  0.42178576  0.59048433  0.74850558     0.05310
H1196       H  0.44197865  0.62909131  0.75819001     0.08530
H1197       H  0.44816819  0.59131983  0.78287514     0.08530
H1198       H  0.05702246  0.58756959  0.64546601     0.08520
H1199       H  0.06193197  0.54899206  0.66991626     0.08520
H1200       H  0.08163875  0.58723110  0.68092332     0.05290
C1201       C  0.48510761  0.60650656  0.88335001    -0.20510
C1202       C  0.01295784  0.60051636  0.86344884    -0.07080
C1203       C  0.03229721  0.57381202  0.87299071     0.13790
C1204       C  0.02269034  0.55368135  0.90196439    -0.20560
C1205       C  0.49491470  0.56025894  0.92230208    -0.07080
C1206       C  0.47636668  0.58782588  0.91276441     0.13780
C1207       C  0.44665689  0.59805979  0.93254888    -0.23910
H1208       H  0.46957711  0.62618467  0.87561459     0.15070
H1209       H  0.03763189  0.53333337  0.90915816     0.15100
C1210       C  0.06353150  0.56644879  0.85397146    -0.23860
H1211       H  0.43333570  0.61764241  0.91928796     0.05310
H1212       H  0.45371278  0.60784632  0.95643576     0.08530
H1213       H  0.42970562  0.57623004  0.93751213     0.08530
H1214       H  0.07038533  0.58500055  0.83317294     0.08520
H1215       H  0.06079035  0.54146819  0.84381735     0.08520
H1216       H  0.08405679  0.56667499  0.87100603     0.05290
C1217       C  0.48653959  0.76269728  0.82201413    -0.20510
C1218       C  0.45237256  0.76199572  0.81919196    -0.07080
C1219       C  0.43557321  0.73254462  0.81064314     0.13790
C1220       C  0.45336035  0.70433838  0.80507887    -0.20560
C1221       C  0.48755086  0.70501589  0.80782006    -0.07080
C1222       C  0.00435810  0.73447941  0.81644430     0.13780
C1223       C  0.04106073  0.73635021  0.81893192    -0.23910
H1224       H  0.99935087  0.78564781  0.82800058     0.15070
H1225       H  0.44050435  0.68144725  0.79899603     0.15100
C1226       C  0.39892076  0.73084460  0.80783354    -0.23860
H1227       H  0.05038710  0.76155624  0.82495428     0.05310
H1228       H  0.05309096  0.73033615  0.79480648     0.08530
H1229       H  0.04809675  0.71841513  0.83882934     0.08530
H1230       H  0.39217714  0.74902391  0.78800349     0.08520
H1231       H  0.38672522  0.73673430  0.83192078     0.08520
H1232       H  0.38956071  0.70573691  0.80153565     0.05290
C1233       C  0.10703853  0.54248586  0.97172133    -0.20510
C1234       C  0.10456019  0.51777136  0.99776215    -0.07080
C1235       C  0.13094679  0.99748703  0.50322873     0.13790
C1236       C  0.15900697  0.50158647  0.98169695    -0.20560
C1237       C  0.16120577  0.52542764  0.95479071    -0.07080
C1238       C  0.13529893  0.54678342  0.95023796     0.13780
C1239       C  0.13749402  0.57413615  0.92310957    -0.23910
H1240       H  0.08634498  0.55768968  0.96755187     0.15070
H1241       H  0.17883802  0.98518035  0.98509917     0.15100
C1242       C  0.12887575  0.97062788  0.53088595    -0.23860
H1243       H  0.11546947  0.58916407  0.92394630     0.05310
H1244       H  0.13947964  0.56354942  0.89829414     0.08530
H1245       H  0.15938380  0.59097937  0.92612188     0.08530
H1246       H  0.10814613  0.95246731  0.52731692     0.08520
H1247       H  0.12488231  0.98190635  0.55519931     0.08520
H1248       H  0.15173814  0.95692413  0.53163920     0.05290
C1249       C  0.30712057  0.54442115  0.93598216    -0.20510
C1250       C  0.28091968  0.52108879  0.94359865    -0.07080
C1251       C  0.28406972  0.49554646  0.96835384     0.13790
C1252       C  0.31286284  0.99461781  0.98562072    -0.20560
C1253       C  0.33970305  0.51768391  0.97818197    -0.07080
C1254       C  0.33661706  0.54276261  0.95257232     0.13780
C1255       C  0.36484168  0.56599900  0.94046382    -0.23910
H1256       H  0.30464214  0.56364450  0.91654039     0.15070
H1257       H  0.31433607  0.97518428  0.50504660     0.15100
C1258       C  0.25743644  0.96852547  0.97615580    -0.23860
H1259       H  0.35827572  0.58367163  0.92006340     0.05310
H1260       H  0.38419331  0.55057897  0.93029715     0.08530
H1261       H  0.37352411  0.58085102  0.96102598     0.08530
H1262       H  0.25129718  0.95629261  0.95302979     0.08520
H1263       H  0.23527978  0.97916882  0.98724949     0.08520
H1264       H  0.26508741  0.94909741  0.99431327     0.05290
C1265       C  0.11650296  0.92582331  0.69050482    -0.20510
C1266       C  0.14346863  0.94792751  0.68072625    -0.07080
C1267       C  0.14077260  0.97109164  0.65355716     0.13790
C1268       C  0.11203366  0.97098587  0.63640332    -0.20560
C1269       C  0.08473897  0.94935369  0.64596794    -0.07080
C1270       C  0.08703550  0.92630724  0.67349429     0.13780
C1271       C  0.05835060  0.90336217  0.68594718    -0.23910
H1272       H  0.11845937  0.90835833  0.71162918     0.15070
H1273       H  0.11081997  0.98871827  0.61537320     0.15100
C1274       C  0.16756631  0.99713118  0.64297704    -0.23860
H1275       H  0.06410452  0.88790129  0.70834194     0.05310
H1276       H  0.05152674  0.88633473  0.66636794     0.08530
H1277       H  0.03725749  0.91831322  0.69280298     0.08530
H1278       H  0.18884735  0.98519342  0.63159651     0.08520
H1279       H  0.17475311  0.51098440  0.66481391     0.08520
H1280       H  0.15961487  0.51553195  0.62392781     0.05290
C1281       C  0.28297934  0.92254759  0.67122997    -0.20510
C1282       C  0.26437707  0.95060232  0.67377718    -0.07080
C1283       C  0.27513070  0.98051932  0.65578660     0.13790
C1284       C  0.30287851  0.98104463  0.63384820    -0.20560
C1285       C  0.32185340  0.95324378  0.63141894    -0.07080
C1286       C  0.31258670  0.92402308  0.65162682     0.13850
C1287       C  0.33416168  0.89502214  0.65519278    -0.23910
H1288       H  0.27529758  0.89997448  0.68602221     0.15070
H1289       H  0.31115872  0.50408036  0.62010374     0.15100
C1290       C  0.25857231  0.51244568  0.66108594    -0.23860
H1291       H  0.33860389  0.88982207  0.68189909     0.05310
H1292       H  0.35849071  0.89974663  0.64183507     0.08530
H1293       H  0.32161242  0.87254607  0.64591372     0.08530
H1294       H  0.25939178  0.01846219  0.68762662     0.08520
H1295       H  0.23278776  0.50994662  0.65441635     0.08520
H1296       H  0.27071285  0.53367210  0.64563165     0.05290
C1297       C  0.22332557  0.50576916  0.78466544    -0.20510
C1298       C  0.20647911  0.97499195  0.78107107    -0.07080
C1299       C  0.19291966  0.95660007  0.80986296     0.13790
C1300       C  0.19664372  0.96939625  0.84138268    -0.20560
C1301       C  0.21381637  0.49998402  0.84496457    -0.07080
C1302       C  0.22707385  0.51852716  0.81617627     0.13780
C1303       C  0.24438522  0.55215723  0.81849119    -0.23910
H1304       H  0.23360147  0.51991977  0.76258034     0.15070
H1305       H  0.18647958  0.95522738  0.86350030     0.15100
C1306       C  0.17561892  0.92295191  0.80763566    -0.23860
H1307       H  0.25193938  0.56383754  0.79347673     0.05310
H1308       H  0.26682269  0.54980598  0.83263427     0.08530
H1309       H  0.22774935  0.56892954  0.83123425     0.08530
H1310       H  0.19226118  0.90611351  0.79500174     0.08520
H1311       H  0.15319016  0.92525268  0.79347871     0.08520
H1312       H  0.16801350  0.91136135  0.83267529     0.05290
C1313       C  0.32571216  0.63112042  0.58293693    -0.20510
C1314       C  0.33176221  0.65352662  0.60776616    -0.07080
C1315       C  0.35368632  0.64485694  0.63267411     0.13790
C1316       C  0.37265068  0.61706220  0.62892847    -0.20560
C1317       C  0.36913757  0.59718473  0.60167985    -0.07080
C1318       C  0.34378167  0.60290319  0.57984758     0.13780
C1319       C  0.33594879  0.57961594  0.55284112    -0.23910
H1320       H  0.30851011  0.63687446  0.56411754     0.15070
H1321       H  0.39102083  0.61162433  0.64667315     0.15100
C1322       C  0.35750001  0.66413698  0.66339389    -0.23860
H1323       H  0.31373903  0.58657794  0.53985772     0.05310
H1324       H  0.33128170  0.55388168  0.56389445     0.08530
H1325       H  0.35654750  0.58028654  0.53379617     0.08530
H1326       H  0.33972401  0.68389195  0.66529799     0.08520
H1327       H  0.38284554  0.67552095  0.66335997     0.08520
H1328       H  0.35298635  0.64703729  0.68589290     0.05290
C1329       C  0.40997887  0.80983832  0.58557254    -0.20510
C1330       C  0.39398262  0.83969314  0.58287303    -0.07080
C1331       C  0.35906004  0.83806094  0.58358812     0.13790
C1332       C  0.34180005  0.80764423  0.59069307    -0.20560
C1333       C  0.35712030  0.77736654  0.58978995    -0.07080
C1334       C  0.39225487  0.77865173  0.58718541     0.13780
C1335       C  0.41192254  0.74826063  0.58436781    -0.23910
H1336       H  0.43658552  0.81087959  0.58429940     0.15070
H1337       H  0.31539512  0.80766149  0.59465647     0.15100
C1338       C  0.33892183  0.86734882  0.57466054    -0.23860
H1339       H  0.43770076  0.75496072  0.57537613     0.05310
H1340       H  0.40130637  0.73155264  0.56619858     0.08530
H1341       H  0.41321571  0.73526088  0.60919139     0.08530
H1342       H  0.34499817  0.88833862  0.58992043     0.08520
H1343       H  0.34368335  0.87513568  0.54790829     0.08520
H1344       H  0.31209168  0.86138759  0.57847072     0.05290
C1345       C  0.05166429  0.67780601  0.00675499    -0.20510
C1346       C  0.07141599  0.68738762  0.53252853    -0.07080
C1347       C  0.06768138  0.66949066  0.56378158     0.13790
C1348       C  0.04571030  0.64154402  0.56786381    -0.20560
C1349       C  0.02708672  0.63070350  0.54167430    -0.07080
C1350       C  0.02961431  0.64963441  0.51088333     0.13780
C1351       C  0.50992828  0.63988553  0.98208437    -0.23910
H1352       H  0.05403733  0.69206326  0.98307314     0.15070
H1353       H  0.04359008  0.62750119  0.59167804     0.15100
C1354       C  0.08634208  0.67996611  0.59322396    -0.23860
H1355       H  0.51573770  0.65672889  0.95958498     0.05310
H1356       H  0.48349195  0.64137306  0.48918606     0.08530
H1357       H  0.51512776  0.61422959  0.97552135     0.08530
H1358       H  0.08189413  0.70624506  0.59800120     0.08520
H1359       H  0.11297664  0.67718034  0.58846157     0.08520
H1360       H  0.07858808  0.66452344  0.61622812     0.05290
C1361       C  0.09333779  0.82787337  0.55008629    -0.20510
C1362       C  0.09112063  0.81042106  0.52106755    -0.07080
C1363       C  0.07418753  0.82406844  0.99426187     0.13790
C1364       C  0.05782850  0.85361121  0.49816351    -0.20560
C1365       C  0.05702170  0.86913627  0.52855386    -0.07080
C1366       C  0.07656443  0.85695771  0.55426984     0.13780
C1367       C  0.08024393  0.87450040  0.58618923    -0.23910
H1368       H  0.10705932  0.81777533  0.57029055     0.15070
H1369       H  0.04453453  0.86376949  0.97789905     0.15100
C1370       C  0.07340679  0.80757299  0.96159870    -0.23860
H1371       H  0.09925998  0.86358178  0.60153338     0.05310
H1372       H  0.05691852  0.87225754  0.60163128     0.08530
H1373       H  0.08773335  0.90112249  0.58039898     0.08530
H1374       H  0.06086020  0.78250496  0.96520344     0.08520
H1375       H  0.09887453  0.80525468  0.95133448     0.08520
H1376       H  0.06005652  0.82214209  0.94295407     0.05290
C1377       C  0.20898528  0.72969461  0.51907269    -0.20510
C1378       C  0.18395974  0.73767016  0.54199118    -0.07080
C1379       C  0.19087865  0.74041705  0.57581390     0.13790
C1380       C  0.22258571  0.73490481  0.58602863    -0.20560
C1381       C  0.24761124  0.72697309  0.56320374    -0.07080
C1382       C  0.24089309  0.72454620  0.52930993     0.13780
C1383       C  0.26734612  0.71632090  0.50415416    -0.23910
H1384       H  0.20350729  0.72745596  0.99319844     0.15070
H1385       H  0.22798287  0.73693384  0.61195836     0.15100
C1386       C  0.16469981  0.74891204  0.60120773    -0.23860
H1387       H  0.25799513  0.71510816  0.97879020     0.05310
H1388       H  0.27690130  0.69183386  0.51133382     0.08530
H1389       H  0.28776005  0.73567837  0.50318723     0.08530
H1390       H  0.14397306  0.72995130  0.60215413     0.08520
H1391       H  0.15556505  0.77366453  0.59438569     0.08520
H1392       H  0.17415752  0.74973314  0.62655289     0.05290
C1393       C  0.60478393  0.27703162  0.52081921     0.02920
C1394       C  0.63823477  0.27330186  0.02591452    -0.13230
C1395       C  0.65024479  0.24153089  0.03090456     0.00420
C1396       C  0.62868886  0.21337891  0.03037731    -0.11750
C1397       C  0.59495799  0.21674654  0.52686567     0.02920
C1398       C  0.58329352  0.24859340  0.52143410    -0.11170
H1399       H  0.65457986  0.29511648  0.02758719     0.08510
H1400       H  0.63786552  0.18890085  0.03481862     0.06040
H1401       H  0.55714875  0.25135438  0.51993601     0.05890
C1402       C  0.81963830  0.18753561  0.10256639     0.02920
C1403       C  0.78840075  0.19170650  0.09026924    -0.13230
C1404       C  0.78071017  0.22224891  0.07553893     0.00420
C1405       C  0.80424546  0.24878655  0.07333044    -0.11750
C1406       C  0.83459807  0.24653770  0.08865380     0.02920
C1407       C  0.84167157  0.21550679  0.10338056    -0.11170
H1408       H  0.77060392  0.17078625  0.09069328     0.08510
H1409       H  0.79820921  0.27149742  0.06001917     0.06040
H1410       H  0.86449861  0.21248001  0.11483738     0.05890
C1411       C  0.67419934  0.44733631  0.19900349     0.02920
C1412       C  0.67487658  0.45703297  0.23206938    -0.13230
C1413       C  0.70504862  0.46217014  0.24710881     0.00420
C1414       C  0.73447859  0.45833704  0.22835008    -0.11750
C1415       C  0.73392342  0.44870795  0.19543738     0.02920
C1416       C  0.70382941  0.44189046  0.18147686    -0.11170
H1417       H  0.65219504  0.46244666  0.24529472     0.08510
H1418       H  0.75784922  0.46404261  0.23894264     0.06040
H1419       H  0.70355991  0.43475987  0.15590777     0.05890
C1420       C  0.75000048  0.02381805  0.42628188     0.02920
C1421       C  0.72160447  0.03072440  0.44489841    -0.13230
C1422       C  0.69072288  0.02642176  0.43183350     0.00420
C1423       C  0.68844505  0.01718878  0.39883952    -0.11750
C1424       C  0.71689304  0.01208650  0.37902120     0.02920
C1425       C  0.74773457  0.01508650  0.39309132    -0.11170
H1426       H  0.72333849  0.03686884  0.47067839     0.08510
H1427       H  0.66452875  0.01244281  0.38904828     0.06040
H1428       H  0.76960361  0.00877985  0.37897098     0.05890
C1429       C  0.51169463  0.12493099  0.27215855     0.02920
C1430       C  0.50429068  0.15836711  0.27358781    -0.13230
C1431       C  0.50425745  0.17367254  0.30398684     0.00420
C1432       C  0.51307636  0.15571032  0.33256617    -0.11750
C1433       C  0.51821188  0.12148703  0.33192503     0.02920
C1434       C  0.51828065  0.10648667  0.30131998    -0.11170
H1435       H  0.49624783  0.17167683  0.25161767     0.08510
H1436       H  0.51143642  0.16722703  0.35628007     0.06040
H1437       H  0.52015044  0.07983127  0.30058883     0.05890
C1438       C  0.92197135  0.34016818  0.35513799     0.02920
C1439       C  0.93120593  0.30718083  0.35326439    -0.13230
C1440       C  0.93565568  0.29338643  0.32222992     0.00420
C1441       C  0.93016771  0.31241811  0.29317868    -0.11750
C1442       C  0.92438907  0.34628137  0.29457193     0.02920
C1443       C  0.91915722  0.35970080  0.32564481    -0.11170
H1444       H  0.93661931  0.29292868  0.37572740     0.08510
H1445       H  0.93355785  0.30165284  0.26925702     0.06040
H1446       H  0.91583132  0.38609602  0.32689481     0.05890
O1447       O  0.52969292  0.41838369  0.01113733    -0.80340
O1448       O  0.93084897  0.45976171  0.16885587    -0.81890
O1449       O  0.53272087  0.43076755  0.12451919    -0.78910
O1450       O  0.94109443  0.37715578  0.09160692    -0.77290
O1451       O  0.90010756  0.39393490  0.05937033    -0.79080
O1452       O  0.55233705  0.48465389  0.11532048    -0.80020
O1453       O  0.96006584  0.41645997  0.15182030    -0.81340
O1454       O  0.51816547  0.39361670  0.06314507    -0.81630
Eu1455     Eu  0.98088196  0.42677431  0.09449199     2.39200
O1456       O  0.92839024  0.44743175  0.09704325    -0.89140
O1457       O  0.51560849  0.46435795  0.06017410    -0.92750
C1458       C  0.53361542  0.39560315  0.03440991     1.01940
C1459       C  0.94301970  0.43109313  0.17386382     1.01760
C1460       C  0.55438579  0.45482221  0.12776569     1.01710
C1461       C  0.91335583  0.37209784  0.07764553     0.99570
H1462       H  0.99118327  0.47825957  0.13933973     0.29310
O1463       O  0.98297971  0.47962206  0.11724883    -1.01530
H1464       H  0.96137812  0.40947457  0.03150246     0.29350
O1465       O  0.96175948  0.43122024  0.04043295    -1.04070
O1466       O  0.89796508  0.04968290  0.11771641    -0.81300
O1467       O  0.99852774  0.51055482  0.45813108    -0.80830
O1468       O  0.51231093  0.04600717  0.13397812    -0.79270
O1469       O  0.86046531  0.44896628  0.08479136    -0.82610
O1470       O  0.91398119  0.42233195  0.99098143    -0.80470
O1471       O  0.56578415  0.02012304  0.04353675    -0.79120
O1472       O  0.98137685  0.09155917  0.03378035    -0.80640
O1473       O  0.89181578  0.03641952  0.00034292    -0.82560
O1474       O  0.52455848  0.07558787  0.06372782    -0.79300
O1475       O  0.87223816  0.48260359  0.00942252    -0.81980
O1476       O  0.96062431  0.03475320  0.15678997    -0.77710
O1477       O  0.55256928  0.49155337  0.99793520    -0.77740
O1478       O  0.96608325  0.43456572  0.46894716    -0.77390
O1479       O  0.87482709  0.47676214  0.13048544    -0.80880
O1480       O  0.90697609  0.07404287  0.06506867    -0.80310
O1481       O  0.96785630  0.05243140  0.47563340    -0.78640
Eu1482     Eu  0.93020282  0.49972431  0.12003279     2.39770
Eu1483     Eu  0.99643255  0.46869596  0.00615709     2.39570
Eu1484     Eu  0.51649481  0.01714974  0.08206329     2.38400
Eu1485     Eu  0.90874806  0.45170780  0.04337143     2.39880
Eu1486     Eu  0.94340864  0.04118657  0.03153946     2.39790
O1487       O  0.94295108  0.48867822  0.00828419    -0.93050
O1488       O  0.96371586  0.03762799  0.08536262    -0.91940
C1489       C  0.89310358  0.07211704  0.09466710     1.02120
C1490       C  0.98648161  0.03947651  0.45379312     1.00840
C1491       C  0.98966500  0.04886121  0.15690803     1.00230
C1492       C  0.85455631  0.45934356  0.11437321     1.02240
C1493       C  0.93757675  0.41947815  0.46881203     1.01160
C1494       C  0.57230396  0.50936979  0.01440605     1.00010
C1495       C  0.50949654  0.09733164  0.04658265     1.00060
C1496       C  0.87015167  0.01233203  0.99678780     1.02680
H1497       H  0.51078214  0.03630694  0.01556484     0.30050
O1498       O  0.99623000  0.02086401  0.02908507    -1.05210
H1499       H  0.88721341  0.01100951  0.06756022     0.32100
O1500       O  0.90939230  0.50379275  0.06633913    -1.07770
C1501       C  0.96256996  0.39125389  0.21584461    -0.20510
C1502       C  0.93813390  0.41276487  0.20690260    -0.07080
C1503       C  0.90961695  0.41380246  0.22826882     0.13790
C1504       C  0.90534962  0.39134713  0.25638911    -0.20560
C1505       C  0.92929977  0.36875445  0.26416014    -0.07080
C1506       C  0.95900788  0.36990353  0.24434991     0.13780
C1507       C  0.98791919  0.35002246  0.25361032    -0.23910
H1508       H  0.98484102  0.39091398  0.20015652     0.15070
H1509       H  0.88323792  0.39139923  0.27244571     0.15100
C1510       C  0.88359241  0.43805826  0.22162507    -0.23860
H1511       H  0.01025925  0.35763522  0.23758625     0.05310
H1512       H  0.98277562  0.32321702  0.25038934     0.08530
H1513       H  0.99380981  0.35398005  0.27977945     0.08530
H1514       H  0.87418296  0.43495774  0.19658616     0.08520
H1515       H  0.89412503  0.46384472  0.22295000     0.08520
H1516       H  0.86250273  0.43445958  0.24022215     0.05290
C1517       C  0.95346336  0.35862002  0.40168566    -0.20510
C1518       C  0.92329898  0.35680529  0.38689498    -0.07080
C1519       C  0.89665371  0.37339303  0.40074029     0.13790
C1520       C  0.90152817  0.39308332  0.42809190    -0.20560
C1521       C  0.93249672  0.39665152  0.44158982    -0.07080
C1522       C  0.95846730  0.37810879  0.42879615     0.13780
C1523       C  0.99148891  0.37783901  0.44380964    -0.23910
H1524       H  0.97371722  0.34559606  0.39107472     0.15070
H1525       H  0.88135985  0.40643193  0.43833484     0.15100
C1526       C  0.86311160  0.36996263  0.38700100    -0.23860
H1527       H  0.50713847  0.35911661  0.43277533     0.05310
H1528       H  0.98807248  0.37144755  0.47098163     0.08530
H1529       H  0.00499183  0.40235160  0.43918691     0.08530
H1530       H  0.85467312  0.34330397  0.38794068     0.08520
H1531       H  0.86385078  0.38020956  0.36084667     0.08520
H1532       H  0.84481997  0.38348815  0.40159345     0.05290
C1533       C  0.96994046  0.07716440  0.20678283    -0.20510
C1534       C  0.99670632  0.06981896  0.18541357    -0.07080
C1535       C  0.52875774  0.08230914  0.19237312     0.13790
C1536       C  0.53286134  0.10081347  0.22061397    -0.20560
C1537       C  0.50604691  0.10735952  0.24174593    -0.07080
C1538       C  0.97424361  0.09559522  0.23479132     0.13780
C1539       C  0.94485037  0.10194774  0.25732490    -0.23910
H1540       H  0.94527005  0.06831203  0.20182480     0.15070
H1541       H  0.55717607  0.11000612  0.22651591     0.15100
C1542       C  0.55896306  0.07612375  0.17094068    -0.23860
H1543       H  0.92178643  0.09048469  0.24850515     0.05310
H1544       H  0.94197936  0.12909154  0.25818988     0.08530
H1545       H  0.94816874  0.09131991  0.28287482     0.08530
H1546       H  0.55702098  0.08756861  0.14546619     0.08520
H1547       H  0.56193035  0.04899101  0.16991639     0.08520
H1548       H  0.58163725  0.08722996  0.18092349     0.05290
C1549       C  0.98510781  0.10650591  0.38334997    -0.20510
C1550       C  0.51295766  0.10051565  0.36344879    -0.07080
C1551       C  0.53229691  0.07381119  0.37299058     0.13790
C1552       C  0.52269004  0.05368056  0.40196430    -0.20560
C1553       C  0.99491473  0.06025820  0.42230202    -0.07080
C1554       C  0.97636680  0.08782521  0.41276433     0.13780
C1555       C  0.94665704  0.09805921  0.43254879    -0.23910
H1556       H  0.96957736  0.12618407  0.37561455     0.15070
H1557       H  0.53763150  0.03333248  0.40915801     0.15100
C1558       C  0.56353105  0.06644778  0.35397117    -0.23860
H1559       H  0.93333587  0.11764181  0.41928783     0.05310
H1560       H  0.95371297  0.10784579  0.45643564     0.08530
H1561       H  0.92970576  0.07622948  0.43751209     0.08530
H1562       H  0.57038483  0.08499949  0.33317257     0.08520
H1563       H  0.56078973  0.04146717  0.34381711     0.08520
H1564       H  0.58405645  0.06667392  0.37100561     0.05290
C1565       C  0.98654020  0.26269706  0.32201469    -0.20510
C1566       C  0.95237318  0.26199556  0.31919248    -0.07080
C1567       C  0.93557380  0.23254446  0.31064367     0.13790
C1568       C  0.95336091  0.20433820  0.30507939    -0.20560
C1569       C  0.98755142  0.20501565  0.30782057    -0.07080
C1570       C  0.50435824  0.23447870  0.31644442     0.13780
C1571       C  0.54106089  0.23634932  0.31893183    -0.23910
H1572       H  0.49935136  0.28564718  0.32800065     0.15070
H1573       H  0.94050489  0.18144708  0.29899652     0.15100
C1574       C  0.89892135  0.23084447  0.30783405    -0.23860
H1575       H  0.55038743  0.26155532  0.32495413     0.05310
H1576       H  0.55309095  0.23033517  0.29480634     0.08530
H1577       H  0.54809693  0.21841421  0.33882922     0.08530
H1578       H  0.89217776  0.24902379  0.28800399     0.08520
H1579       H  0.88672581  0.23673419  0.33192128     0.08520
H1580       H  0.88956128  0.20573680  0.30153616     0.05290
C1581       C  0.60703808  0.04248495  0.47172054    -0.20510
C1582       C  0.60455981  0.01777030  0.49776121    -0.07080
C1583       C  0.63094714  0.49748761  0.00322921     0.13790
C1584       C  0.65900676  0.00158586  0.48169607    -0.20560
C1585       C  0.66120557  0.02542727  0.45479006    -0.07080
C1586       C  0.63529857  0.04678286  0.45023732     0.13780
C1587       C  0.63749361  0.07413577  0.42310910    -0.23910
H1588       H  0.58634448  0.05768870  0.46755115     0.15070
H1589       H  0.67883815  0.48518152  0.48509994     0.15100
C1590       C  0.62887604  0.47062898  0.03088695    -0.23860
H1591       H  0.61546893  0.08916348  0.42394580     0.05310
H1592       H  0.63947950  0.06354922  0.39829360     0.08530
H1593       H  0.65938323  0.09097913  0.42612167     0.08530
H1594       H  0.60814617  0.45246852  0.02731845     0.08520
H1595       H  0.62488296  0.48190797  0.05520010     0.08520
H1596       H  0.65173826  0.45692497  0.03164028     0.05290
C1597       C  0.80712048  0.04442168  0.43598254    -0.20510
C1598       C  0.78091955  0.02108933  0.44359886    -0.07080
C1599       C  0.78406944  0.99554699  0.46835407     0.13790
C1600       C  0.81286278  0.49461843  0.48562146    -0.20560
C1601       C  0.83970278  0.01768424  0.47818239    -0.07080
C1602       C  0.83661690  0.04276305  0.45257282     0.13780
C1603       C  0.86484157  0.06599942  0.44046442    -0.23910
H1604       H  0.80464215  0.06364506  0.41654077     0.15070
H1605       H  0.81433648  0.47518386  0.00504636     0.15100
C1606       C  0.75743607  0.46852676  0.47615667    -0.23860
H1607       H  0.85827564  0.08367221  0.42006413     0.05310
H1608       H  0.88419308  0.05057935  0.43029759     0.08530
H1609       H  0.87352411  0.08085127  0.46102666     0.08530
H1610       H  0.75129648  0.45629426  0.45303056     0.08520
H1611       H  0.73527965  0.47917022  0.48725072     0.08520
H1612       H  0.76508702  0.44909839  0.49431383     0.05290
C1613       C  0.61650409  0.42582425  0.19050490    -0.20510
C1614       C  0.64346938  0.44792927  0.18072733    -0.07080
C1615       C  0.64077310  0.47109430  0.15355908     0.13790
C1616       C  0.61203422  0.47098861  0.13640498    -0.20560
C1617       C  0.58473988  0.44935538  0.14596846    -0.07080
C1618       C  0.58703676  0.42630809  0.17349409     0.13780
C1619       C  0.55835235  0.40336187  0.18594594    -0.23910
H1620       H  0.61846074  0.40835856  0.21162862     0.15070
H1621       H  0.61082037  0.48872173  0.11537548     0.15100
C1622       C  0.66756665  0.49713450  0.14298014    -0.23860
H1623       H  0.56410646  0.38790044  0.20834027     0.05310
H1624       H  0.55152925  0.38633495  0.16636599     0.08530
H1625       H  0.53725870  0.41831203  0.19280208     0.08530
H1626       H  0.68884840  0.48519745  0.13160012     0.08520
H1627       H  0.67475292  0.01098493  0.16481360     0.08520
H1628       H  0.65961409  0.01553270  0.12392777     0.05290
C1629       C  0.78297686  0.42254640  0.17122399    -0.20510
C1630       C  0.76437765  0.45060283  0.17377707    -0.07080
C1631       C  0.77513237  0.48052092  0.15578903     0.13790
C1632       C  0.80287954  0.48104687  0.13384965    -0.20560
C1633       C  0.82185175  0.45324459  0.13141516    -0.07080
C1634       C  0.81258257  0.42402129  0.15161791     0.13850
C1635       C  0.83415340  0.39501607  0.15517423    -0.23910
H1636       H  0.77529359  0.39997173  0.18601299     0.15070
H1637       H  0.81115878  0.00408016  0.12010284     0.15100
C1638       C  0.75857196  0.01244594  0.16108438    -0.23860
H1639       H  0.83859889  0.38980961  0.18187883     0.05310
H1640       H  0.85848113  0.39973933  0.14181367     0.08530
H1641       H  0.82159934  0.37254438  0.14589154     0.08530
H1642       H  0.75939569  0.51846224  0.18763215     0.08520
H1643       H  0.73278758  0.00994664  0.15441436     0.08520
H1644       H  0.77071265  0.03367220  0.14562999     0.05290
C1645       C  0.72332598  0.00576940  0.28466517    -0.20510
C1646       C  0.70648019  0.47499347  0.28107196    -0.07080
C1647       C  0.69292038  0.45660176  0.30986386     0.13790
C1648       C  0.69664407  0.46939809  0.34138360    -0.20560
C1649       C  0.71381698  0.99998416  0.34496430    -0.07080
C1650       C  0.72707442  0.01852733  0.31617599     0.13780
C1651       C  0.74438588  0.05215735  0.31849091    -0.23910
H1652       H  0.73360181  0.01992004  0.26258005     0.15070
H1653       H  0.68647976  0.45522926  0.36350118     0.15100
C1654       C  0.67561962  0.42295361  0.30763659    -0.23860
H1655       H  0.75194001  0.06383767  0.29347644     0.05310
H1656       H  0.76682339  0.04980602  0.33263393     0.08530
H1657       H  0.72775009  0.06892969  0.33123403     0.08530
H1658       H  0.69226195  0.40611510  0.29500293     0.08520
H1659       H  0.65319099  0.42525435  0.29347942     0.08520
H1660       H  0.66801396  0.41136318  0.33267622     0.05290
C1661       C  0.82571157  0.13112004  0.08293914    -0.20510
C1662       C  0.83176143  0.15352582  0.10776882    -0.07080
C1663       C  0.85368605  0.14485610  0.13267624     0.13790
C1664       C  0.87265089  0.11706181  0.12892976    -0.20560
C1665       C  0.86913788  0.09718484  0.10168072    -0.07080
C1666       C  0.84378164  0.10290330  0.07984887     0.13780
C1667       C  0.83594886  0.07961650  0.05284199    -0.23910
H1668       H  0.80850919  0.13687412  0.06412008     0.15070
H1669       H  0.89102128  0.11162388  0.14667415     0.15100
C1670       C  0.85749974  0.16413566  0.16339633    -0.23860
H1671       H  0.81373888  0.08657844  0.03985894     0.05310
H1672       H  0.83128218  0.05388202  0.06389486     0.08530
H1673       H  0.85654744  0.08028770  0.03379683     0.08530
H1674       H  0.83972349  0.18389035  0.16530090     0.08520
H1675       H  0.88284515  0.17551995  0.16336235     0.08520
H1676       H  0.85298649  0.14703557  0.18589510     0.05290
C1677       C  0.90997995  0.30983758  0.08557745    -0.20510
C1678       C  0.89398458  0.33969227  0.08286716    -0.07080
C1679       C  0.85906219  0.33805985  0.08357204     0.13790
C1680       C  0.84180104  0.30764421  0.09067924    -0.20560
C1681       C  0.85712103  0.27736570  0.08978689    -0.07080
C1682       C  0.89225603  0.27865075  0.08719194     0.13780
C1683       C  0.91192524  0.24825926  0.08438815    -0.23910
H1684       H  0.93658655  0.31087871  0.08431259     0.15070
H1685       H  0.81539581  0.30766296  0.09463769     0.15100
C1686       C  0.83892537  0.36734597  0.07463326    -0.23860
H1687       H  0.93770557  0.25495797  0.07540298     0.05310
H1688       H  0.90131536  0.23154660  0.06621950     0.08530
H1689       H  0.91321163  0.23526548  0.10921561     0.08530
H1690       H  0.84499227  0.38833707  0.08989513     0.08520
H1691       H  0.84369705  0.37513155  0.04788190     0.08520
H1692       H  0.81209462  0.36138294  0.07843184     0.05290
C1693       C  0.55166459  0.17780590  0.50675471    -0.20510
C1694       C  0.57141561  0.18738774  0.03252899    -0.07080
C1695       C  0.56768097  0.16949074  0.06378203     0.13790
C1696       C  0.54570983  0.14154414  0.06786425    -0.20560
C1697       C  0.52708623  0.13070366  0.04167476    -0.07080
C1698       C  0.52961387  0.14963459  0.01088378     0.13780
C1699       C  0.00992864  0.13988513  0.48208401    -0.23910
H1700       H  0.55403755  0.19206321  0.48307289     0.15070
H1701       H  0.54358960  0.12750129  0.09167848     0.15100
C1702       C  0.58634175  0.17996609  0.09322439    -0.23860
H1703       H  0.01573802  0.15672854  0.45958465     0.05310
H1704       H  0.98349215  0.14137356  0.98918550     0.08530
H1705       H  0.01512813  0.11422921  0.47552094     0.08530
H1706       H  0.58189393  0.20624506  0.09800163     0.08520
H1707       H  0.61297628  0.17718017  0.08846197     0.08520
H1708       H  0.57858769  0.16452344  0.11622855     0.05290
C1709       C  0.59333893  0.32787388  0.05008589    -0.20510
C1710       C  0.59112133  0.31042123  0.02106740    -0.07080
C1711       C  0.57418718  0.32406842  0.49426189     0.13790
C1712       C  0.55782941  0.35361151  0.99816318    -0.20560
C1713       C  0.55702301  0.36913693  0.02855334    -0.07080
C1714       C  0.57656589  0.35695847  0.05426925     0.13780
C1715       C  0.58024580  0.37450147  0.08618840    -0.23910
H1716       H  0.60706052  0.31777593  0.07029014     0.15070
H1717       H  0.54453423  0.36376951  0.47789916     0.15100
C1718       C  0.57340647  0.30757307  0.46159866    -0.23860
H1719       H  0.59926192  0.36358289  0.10153248     0.05310
H1720       H  0.55692051  0.37225891  0.10163065     0.08530
H1721       H  0.58773533  0.40112349  0.08039783     0.08530
H1722       H  0.56085990  0.28250502  0.46520334     0.08520
H1723       H  0.59887423  0.30525480  0.45133444     0.08520
H1724       H  0.56005619  0.32214220  0.44295408     0.05290
C1725       C  0.70898532  0.22969389  0.01907270    -0.20510
C1726       C  0.68395980  0.23766928  0.04199131    -0.07080
C1727       C  0.69087864  0.24041546  0.07581412     0.13790
C1728       C  0.72258556  0.23490247  0.08602888    -0.20560
C1729       C  0.74761111  0.22697095  0.06320387    -0.07080
C1730       C  0.74089305  0.22454495  0.02930993     0.13780
C1731       C  0.76734603  0.21631984  0.00415402    -0.23910
H1732       H  0.70350735  0.22745598  0.49319860     0.15070
H1733       H  0.72798265  0.23693099  0.11195868     0.15100
C1734       C  0.66469993  0.24891065  0.10120799    -0.23860
H1735       H  0.75799544  0.21510879  0.47879053     0.05310
H1736       H  0.77690108  0.19183266  0.01133336     0.08530
H1737       H  0.78776005  0.23567718  0.00318728     0.08530
H1738       H  0.64397285  0.22995030  0.10215413     0.08520
H1739       H  0.65556564  0.27366339  0.09438617     0.08520
H1740       H  0.67415758  0.24973127  0.12655320     0.05290
C1741       C  0.60478407  0.27703157  0.02081934     0.02920
C1742       C  0.63823465  0.27330217  0.52591437    -0.13230
C1743       C  0.65024490  0.24153131  0.53090438     0.00420
C1744       C  0.62868919  0.21337917  0.53037706    -0.11750
C1745       C  0.59495770  0.21674652  0.02686595     0.02920
C1746       C  0.58329347  0.24859348  0.02143432    -0.11170
H1747       H  0.65457957  0.29511690  0.52758710     0.08510
H1748       H  0.63786603  0.18890119  0.53481834     0.06040
H1749       H  0.55714872  0.25135464  0.01993622     0.05890
C1750       C  0.81963923  0.18753649  0.60256407     0.02920
C1751       C  0.78840170  0.19170767  0.59026685    -0.13230
C1752       C  0.78071038  0.22225094  0.57553892     0.00420
C1753       C  0.80424484  0.24878932  0.57333293    -0.11750
C1754       C  0.83459791  0.24653913  0.58865481     0.02920
C1755       C  0.84167238  0.21550761  0.60337915    -0.11170
H1756       H  0.77060519  0.17078725  0.59068961     0.08510
H1757       H  0.79820790  0.27150180  0.56002492     0.06040
H1758       H  0.86450006  0.21248087  0.61483508     0.05890
C1759       C  0.67419874  0.44733560  0.69900274     0.02920
C1760       C  0.67487584  0.45703200  0.73206874    -0.13230
C1761       C  0.70504785  0.46216925  0.74710823     0.00420
C1762       C  0.73447784  0.45833647  0.72834957    -0.11750
C1763       C  0.73392278  0.44870794  0.69543678     0.02920
C1764       C  0.70382892  0.44189021  0.68147610    -0.11170
H1765       H  0.65219425  0.46244542  0.74529413     0.08510
H1766       H  0.75784842  0.46404195  0.73894225     0.06040
H1767       H  0.70355962  0.43475953  0.65590704     0.05890
C1768       C  0.75000049  0.02381667  0.92628147     0.02920
C1769       C  0.72160461  0.03072317  0.94489814    -0.13230
C1770       C  0.69072291  0.02642068  0.93183344     0.00420
C1771       C  0.68844483  0.01718762  0.89883951    -0.11750
C1772       C  0.71689269  0.01208518  0.87902104     0.02920
C1773       C  0.74773433  0.01508505  0.89309095    -0.11170
H1774       H  0.72333883  0.03686772  0.97067808     0.08510
H1775       H  0.66452845  0.01244178  0.88904839     0.06040
H1776       H  0.76960326  0.00877833  0.87897049     0.05890
C1777       C  0.51169610  0.12493175  0.77215840     0.02920
C1778       C  0.50429203  0.15836784  0.77358767    -0.13230
C1779       C  0.50425829  0.17367316  0.80398677     0.00420
C1780       C  0.51307686  0.15571088  0.83256620    -0.11750
C1781       C  0.51821245  0.12148762  0.83192505     0.02920
C1782       C  0.51828168  0.10648735  0.80131994    -0.11170
H1783       H  0.49624941  0.17167760  0.75161744     0.08510
H1784       H  0.51143659  0.16722753  0.85628012     0.06040
H1785       H  0.52015148  0.07983195  0.80058876     0.05890
C1786       C  0.92197158  0.34016840  0.85513777     0.02920
C1787       C  0.93120594  0.30718100  0.85326411    -0.13230
C1788       C  0.93565542  0.29338661  0.82222961     0.00420
C1789       C  0.93016733  0.31241834  0.79317843    -0.11750
C1790       C  0.92438917  0.34628170  0.79457173     0.02920
C1791       C  0.91915756  0.35970112  0.82564466    -0.11170
H1792       H  0.93661938  0.29292881  0.87572707     0.08510
H1793       H  0.93355712  0.30165301  0.76925677     0.06040
H1794       H  0.91583196  0.38609638  0.82689476     0.05890
O1795       O  0.52969251  0.41838336  0.51113756    -0.80340
O1796       O  0.93085077  0.45976302  0.66885644    -0.81890
O1797       O  0.53271994  0.43076675  0.62451938    -0.78910
O1798       O  0.94109312  0.37715699  0.59160887    -0.77290
O1799       O  0.90010500  0.39393481  0.55937283    -0.79080
O1800       O  0.55233629  0.48465305  0.61532071    -0.80020
O1801       O  0.96006682  0.41646081  0.65182075    -0.81340
O1802       O  0.51816482  0.39361641  0.56314527    -0.81630
Eu1803     Eu  0.98088196  0.42677460  0.59449222     2.39200
O1804       O  0.92839056  0.44743237  0.59704372    -0.89140
O1805       O  0.51560807  0.46435761  0.56017429    -0.92750
C1806       C  0.53361487  0.39560284  0.53441016     1.01940
C1807       C  0.94302127  0.43109435  0.67386442     1.01760
C1808       C  0.55438491  0.45482133  0.62776585     1.01710
C1809       C  0.91335398  0.37209858  0.57764863     0.99570
H1810       H  0.99118406  0.47825999  0.63933989     0.29310
O1811       O  0.98298032  0.47962241  0.61724899    -1.01530
H1812       H  0.96137749  0.40947378  0.53150305     0.29350
O1813       O  0.96175905  0.43121968  0.54043329    -1.04070
O1814       O  0.89796501  0.04968330  0.61771619    -0.81300
O1815       O  0.99852778  0.51055552  0.95813116    -0.80830
O1816       O  0.51231263  0.04600754  0.63397786    -0.79270
O1817       O  0.86046585  0.44896697  0.58479351    -0.82610
O1818       O  0.91398081  0.42233129  0.49098228    -0.80470
O1819       O  0.56578425  0.02012239  0.54353632    -0.79120
O1820       O  0.98137711  0.09155877  0.53378043    -0.80640
O1821       O  0.89181588  0.03641962  0.50034311    -0.82560
O1822       O  0.52455917  0.07558765  0.56372739    -0.79300
O1823       O  0.87223785  0.48260368  0.50942338    -0.81980
O1824       O  0.96062474  0.03475373  0.65678989    -0.77710
O1825       O  0.55256909  0.49155301  0.49793550    -0.77740
O1826       O  0.96608386  0.43456601  0.96894684    -0.77390
O1827       O  0.87482855  0.47676188  0.63048790    -0.80880
O1828       O  0.90697638  0.07404301  0.56506839    -0.80310
O1829       O  0.96785619  0.05243177  0.97563322    -0.78640
Eu1830     Eu  0.93020358  0.49972500  0.62003302     2.39770
Eu1831     Eu  0.99643225  0.46869545  0.50615725     2.39570
Eu1832     Eu  0.51649532  0.01714964  0.58206314     2.38400
Eu1833     Eu  0.90874761  0.45170751  0.54337226     2.39880
Eu1834     Eu  0.94340866  0.04118631  0.53153962     2.39790
O1835       O  0.94295078  0.48867767  0.50828471    -0.93050
O1836       O  0.96371594  0.03762810  0.58536276    -0.91940
C1837       C  0.89310368  0.07211733  0.59466671     1.02120
C1838       C  0.98648164  0.03947700  0.95379297     1.00840
C1839       C  0.98966555  0.04886144  0.65690801     1.00230
C1840       C  0.85455753  0.45934344  0.61437585     1.02240
C1841       C  0.93757729  0.41947861  0.96881145     1.01160
C1842       C  0.57230373  0.50936944  0.51440639     1.00010
C1843       C  0.50949714  0.09733140  0.54658231     1.00060
C1844       C  0.87015146  0.01233237  0.49678826     1.02680
H1845       H  0.51078229  0.03630647  0.51556458     0.30050
O1846       O  0.99622989  0.02086360  0.52908521    -1.05210
H1847       H  0.88721309  0.01100975  0.56756063     0.32100
O1848       O  0.90939236  0.50379284  0.56633952    -1.07770
C1849       C  0.96257069  0.39125371  0.71584443    -0.20510
C1850       C  0.93813559  0.41276618  0.70690326    -0.07080
C1851       C  0.90961940  0.41380517  0.72827026     0.13790
C1852       C  0.90535120  0.39134905  0.75638986    -0.20560
C1853       C  0.92930029  0.36875489  0.76416004    -0.07080
C1854       C  0.95900817  0.36990308  0.74434950     0.13780
C1855       C  0.98791892  0.35002091  0.75360936    -0.23910
H1856       H  0.98484137  0.39091287  0.70015591     0.15070
H1857       H  0.88323989  0.39140209  0.77244690     0.15100
C1858       C  0.88359708  0.43806403  0.72162870    -0.23860
H1859       H  0.01025909  0.35763338  0.73758535     0.05310
H1860       H  0.98277461  0.32321569  0.75038778     0.08530
H1861       H  0.99380979  0.35397774  0.77977857     0.08530
H1862       H  0.87418707  0.43496680  0.69658960     0.08520
H1863       H  0.89413216  0.46384933  0.72295540     0.08520
H1864       H  0.86250742  0.43446592  0.74022585     0.05290
C1865       C  0.95346373  0.35862017  0.90168537    -0.20510
C1866       C  0.92329931  0.35680545  0.88689476    -0.07080
C1867       C  0.89665408  0.37339323  0.90074006     0.13790
C1868       C  0.90152865  0.39308369  0.92809151    -0.20560
C1869       C  0.93249726  0.39665194  0.94158931    -0.07080
C1870       C  0.95846775  0.37810903  0.92879577     0.13780
C1871       C  0.99148932  0.37783914  0.94380934    -0.23910
H1872       H  0.97371754  0.34559612  0.89107446     0.15070
H1873       H  0.88136036  0.40643235  0.93833443     0.15100
C1874       C  0.86311192  0.36996272  0.88700091    -0.23860
H1875       H  0.50713874  0.35911679  0.93277518     0.05310
H1876       H  0.98807282  0.37144774  0.97098135     0.08530
H1877       H  0.00499234  0.40235168  0.93918660     0.08530
H1878       H  0.85467346  0.34330404  0.88794078     0.08520
H1879       H  0.86385100  0.38020949  0.86084653     0.08520
H1880       H  0.84482033  0.38348830  0.90159336     0.05290
C1881       C  0.96994110  0.07716469  0.70678280    -0.20510
C1882       C  0.99670694  0.06981925  0.68541351    -0.07080
C1883       C  0.52875949  0.08231005  0.69237281     0.13790
C1884       C  0.53286305  0.10081434  0.72061373    -0.20560
C1885       C  0.50604857  0.10736031  0.74174570    -0.07080
C1886       C  0.97424424  0.09559556  0.73479125     0.13780
C1887       C  0.94485100  0.10194803  0.75732485    -0.23910
H1888       H  0.94527069  0.06831227  0.70182484     0.15070
H1889       H  0.55717775  0.11000700  0.72651573     0.15100
C1890       C  0.55896481  0.07612474  0.67094034    -0.23860
H1891       H  0.92178707  0.09048491  0.74850514     0.05310
H1892       H  0.94197992  0.12909183  0.75818979     0.08530
H1893       H  0.94816941  0.09132024  0.78287478     0.08530
H1894       H  0.55702262  0.08756953  0.64546583     0.08520
H1895       H  0.56193218  0.04899201  0.66991608     0.08520
H1896       H  0.58163897  0.08723105  0.68092310     0.05290
C1897       C  0.98510781  0.10650643  0.88334985    -0.20510
C1898       C  0.51295796  0.10051618  0.86344875    -0.07080
C1899       C  0.53229720  0.07381177  0.87299067     0.13790
C1900       C  0.52269022  0.05368117  0.90196436    -0.20560
C1901       C  0.99491471  0.06025872  0.92230189    -0.07080
C1902       C  0.97636675  0.08782569  0.91276419     0.13780
C1903       C  0.94665692  0.09805961  0.93254858    -0.23910
H1904       H  0.96957735  0.12618457  0.87561440     0.15070
H1905       H  0.53763169  0.03333313  0.90915817     0.15100
C1906       C  0.56353146  0.06644837  0.85397147    -0.23860
H1907       H  0.93333580  0.11764227  0.91928764     0.05310
H1908       H  0.95371275  0.10784611  0.95643551     0.08530
H1909       H  0.92970560  0.07622989  0.93751175     0.08530
H1910       H  0.57038540  0.08500009  0.83317293     0.08520
H1911       H  0.56079021  0.04146777  0.84381738     0.08520
H1912       H  0.58405673  0.06667449  0.87100606     0.05290
C1913       C  0.98654003  0.26269746  0.82201433    -0.20510
C1914       C  0.95237302  0.26199583  0.81919205    -0.07080
C1915       C  0.93557376  0.23254470  0.81064318     0.13790
C1916       C  0.95336099  0.20433850  0.80507894    -0.20560
C1917       C  0.98755149  0.20501608  0.80782022    -0.07080
C1918       C  0.50435867  0.23447928  0.81644440     0.13780
C1919       C  0.54106130  0.23635008  0.81893198    -0.23910
H1920       H  0.49935143  0.28564766  0.82800076     0.15070
H1921       H  0.94050506  0.18144734  0.79899605     0.15100
C1922       C  0.89892132  0.23084460  0.80783348    -0.23860
H1923       H  0.55038766  0.26155610  0.82495440     0.05310
H1924       H  0.55309151  0.23033608  0.79480651     0.08530
H1925       H  0.54809734  0.21841496  0.83882935     0.08530
H1926       H  0.89217772  0.24902389  0.78800341     0.08520
H1927       H  0.88672570  0.23673427  0.83192069     0.08520
H1928       H  0.88956135  0.20573689  0.80153557     0.05290
C1929       C  0.60703857  0.04248538  0.97172080    -0.20510
C1930       C  0.60456021  0.01777112  0.99776186    -0.07080
C1931       C  0.63094701  0.49748766  0.50322948     0.13790
C1932       C  0.65900686  0.00158583  0.98169658    -0.20560
C1933       C  0.66120570  0.02542678  0.95479016    -0.07080
C1934       C  0.63529893  0.04678264  0.95023732     0.13780
C1935       C  0.63749408  0.07413518  0.92310873    -0.23910
H1936       H  0.58634508  0.05768924  0.96755125     0.15070
H1937       H  0.67883805  0.48518081  0.98509957     0.15100
C1938       C  0.62887597  0.47062869  0.53088687    -0.23860
H1939       H  0.61546962  0.08916322  0.92394541     0.05310
H1940       H  0.63947956  0.06354824  0.89829339     0.08530
H1941       H  0.65938395  0.09097832  0.92612084     0.08530
H1942       H  0.60814627  0.45246814  0.52731803     0.08520
H1943       H  0.62488266  0.48190733  0.55520016     0.08520
H1944       H  0.65173831  0.45692486  0.53164015     0.05290
C1945       C  0.80712054  0.04442050  0.93598178    -0.20510
C1946       C  0.78091970  0.02108806  0.94359823    -0.07080
C1947       C  0.78406974  0.99554585  0.96835355     0.13790
C1948       C  0.81286284  0.49461810  0.98562110    -0.20560
C1949       C  0.83970295  0.01768357  0.97818187    -0.07080
C1950       C  0.83661696  0.04276217  0.95257211     0.13780
C1951       C  0.86484152  0.06599866  0.94046368    -0.23910
H1952       H  0.80464211  0.06364377  0.91653993     0.15070
H1953       H  0.81433639  0.47518394  0.50504647     0.15100
C1954       C  0.75743630  0.46852598  0.97615636    -0.23860
H1955       H  0.85827557  0.08367121  0.92006320     0.05310
H1956       H  0.88419328  0.05057870  0.93029715     0.08530
H1957       H  0.87352380  0.08085076  0.96102586     0.08530
H1958       H  0.75129690  0.45629316  0.95303037     0.08520
H1959       H  0.73527975  0.47916943  0.98725015     0.08520
H1960       H  0.76508727  0.44909788  0.99431379     0.05290
C1961       C  0.61650327  0.42582371  0.69050494    -0.20510
C1962       C  0.64346877  0.44792824  0.68072663    -0.07080
C1963       C  0.64077252  0.47109266  0.65355784     0.13790
C1964       C  0.61203353  0.47098688  0.63640404    -0.20560
C1965       C  0.58473902  0.44935428  0.64596833    -0.07080
C1966       C  0.58703580  0.42630754  0.67349440     0.13780
C1967       C  0.55835115  0.40336201  0.68594698    -0.23910
H1968       H  0.61845986  0.40835850  0.71162906     0.15070
H1969       H  0.61081968  0.48871954  0.61537415     0.15100
C1970       C  0.66756613  0.49713242  0.64297797    -0.23860
H1971       H  0.56410524  0.38790092  0.70834155     0.05310
H1972       H  0.55152753  0.38633476  0.66636749     0.08530
H1973       H  0.53725785  0.41831270  0.69280299     0.08530
H1974       H  0.68884729  0.48519488  0.63159740     0.08520
H1975       H  0.67475327  0.01098280  0.66481143     0.08520
H1976       H  0.65961415  0.01553004  0.62392573     0.05290
C1977       C  0.78297888  0.42254760  0.67122873    -0.20510
C1978       C  0.76437725  0.45060270  0.67377710    -0.07080
C1979       C  0.77513117  0.48051990  0.65578704     0.13790
C1980       C  0.80287891  0.48104531  0.63384850    -0.20560
C1981       C  0.82185324  0.45324414  0.63141821    -0.07080
C1982       C  0.81258594  0.42402293  0.65162505     0.13850
C1983       C  0.83416004  0.39502110  0.65518916    -0.23910
H1984       H  0.77529677  0.39997419  0.68602032     0.15070
H1985       H  0.81115696  0.00407804  0.62010044     0.15100
C1986       C  0.75857022  0.01244485  0.66108176    -0.23860
H1987       H  0.83860278  0.38981971  0.68189515     0.05310
H1988       H  0.85848887  0.39974534  0.64183100     0.08530
H1989       H  0.82160984  0.37254593  0.64590930     0.08530
H1990       H  0.75939263  0.51846247  0.68762763     0.08520
H1991       H  0.73278607  0.00994492  0.65441137     0.08520
H1992       H  0.77071087  0.03367077  0.64562685     0.05290
C1993       C  0.72332518  0.00576832  0.78466501    -0.20510
C1994       C  0.70647953  0.47499243  0.78107135    -0.07080
C1995       C  0.69291996  0.45660057  0.80986321     0.13790
C1996       C  0.69664389  0.46939676  0.84138296    -0.20560
C1997       C  0.71381641  0.99998295  0.84496413    -0.07080
C1998       C  0.72707386  0.01852612  0.81617583     0.13780
C1999       C  0.74438559  0.05215601  0.81849073    -0.23910
H2000       H  0.73360102  0.01991896  0.76257989     0.15070
H2001       H  0.68647967  0.45522789  0.86350055     0.15100
C2002       C  0.67561924  0.42295241  0.80763588    -0.23860
H2003       H  0.75193970  0.06383633  0.79347625     0.05310
H2004       H  0.76682314  0.04980448  0.83263363     0.08530
H2005       H  0.72774999  0.06892846  0.83123394     0.08530
H2006       H  0.69226154  0.40611400  0.79500202     0.08520
H2007       H  0.65319052  0.42525317  0.79347885     0.08520
H2008       H  0.66801374  0.41136186  0.83267549     0.05290
C2009       C  0.82571242  0.13112078  0.58293713    -0.20510
C2010       C  0.83176216  0.15352669  0.60776670    -0.07080
C2011       C  0.85368621  0.14485689  0.63267464     0.13790
C2012       C  0.87265079  0.11706235  0.62892877    -0.20560
C2013       C  0.86913799  0.09718520  0.60167986    -0.07080
C2014       C  0.84378218  0.10290376  0.57984750     0.13780
C2015       C  0.83594962  0.07961685  0.55284066    -0.23910
H2016       H  0.80851043  0.13687493  0.56411772     0.15070
H2017       H  0.89102085  0.11162439  0.64667351     0.15100
C2018       C  0.85749960  0.16413664  0.66339466    -0.23860
H2019       H  0.81373983  0.08657881  0.53985729     0.05310
H2020       H  0.83128273  0.05388241  0.56389362     0.08530
H2021       H  0.85654838  0.08028791  0.53379573     0.08530
H2022       H  0.83972350  0.18389151  0.66529883     0.08520
H2023       H  0.88284507  0.17552071  0.66336099     0.08520
H2024       H  0.85298589  0.14703672  0.68589349     0.05290
C2025       C  0.90997935  0.30983820  0.58557385    -0.20510
C2026       C  0.89398334  0.33969303  0.58287220    -0.07080
C2027       C  0.85906079  0.33806085  0.58358527     0.13790
C2028       C  0.84180051  0.30764440  0.59069071    -0.20560
C2029       C  0.85712063  0.27736652  0.58978970    -0.07080
C2030       C  0.89225529  0.27865159  0.58718704     0.13780
C2031       C  0.91192318  0.24826037  0.58437212    -0.23910
H2032       H  0.93658599  0.31087938  0.58430233     0.15070
H2033       H  0.81539552  0.30766200  0.59465313     0.15100
C2034       C  0.83892291  0.36734839  0.57465536    -0.23860
H2035       H  0.93770183  0.25496012  0.57538172     0.05310
H2036       H  0.90130821  0.23155150  0.56620300     0.08530
H2037       H  0.91321499  0.23526175  0.60919645     0.08530
H2038       H  0.84499743  0.38833850  0.58991555     0.08520
H2039       H  0.84368645  0.37513489  0.54790326     0.08520
H2040       H  0.81209263  0.36138687  0.57846327     0.05290
C2041       C  0.55166416  0.17780602  0.00675503    -0.20510
C2042       C  0.57141607  0.18738762  0.53252866    -0.07080
C2043       C  0.56768152  0.16949057  0.56378167     0.13790
C2044       C  0.54571047  0.14154391  0.56786388    -0.20560
C2045       C  0.52708682  0.13070343  0.54167440    -0.07080
C2046       C  0.52961435  0.14963442  0.51088346     0.13780
C2047       C  0.00992847  0.13988556  0.98208392    -0.23910
H2048       H  0.55403722  0.19206327  0.98307317     0.15070
H2049       H  0.54359030  0.12750103  0.59167808     0.15100
C2050       C  0.58634226  0.17996598  0.59322404    -0.23860
H2051       H  0.01573791  0.15672894  0.95958455     0.05310
H2052       H  0.98349234  0.14137313  0.48918568     0.08530
H2053       H  0.01512798  0.11422962  0.97552090     0.08530
H2054       H  0.58189430  0.20624491  0.59800134     0.08520
H2055       H  0.61297682  0.17718023  0.58846161     0.08520
H2056       H  0.57858830  0.16452326  0.61622818     0.05290
C2057       C  0.59333840  0.32787361  0.55008607    -0.20510
C2058       C  0.59112097  0.31042113  0.52106746    -0.07080
C2059       C  0.57418752  0.32406847  0.99426181     0.13790
C2060       C  0.55782898  0.35361138  0.49816337    -0.20560
C2061       C  0.55702243  0.36913662  0.52855362    -0.07080
C2062       C  0.57656524  0.35695810  0.55426955     0.13780
C2063       C  0.58024499  0.37450095  0.58618881    -0.23910
H2064       H  0.60705998  0.31777561  0.57029031     0.15070
H2065       H  0.54453459  0.36376956  0.97789898     0.15100
C2066       C  0.57340668  0.30757297  0.96159867    -0.23860
H2067       H  0.59926107  0.36358232  0.60153291     0.05310
H2068       H  0.55691965  0.37225828  0.60163097     0.08530
H2069       H  0.58773449  0.40112299  0.58039838     0.08530
H2070       H  0.56086003  0.28250497  0.96520347     0.08520
H2071       H  0.59887441  0.30525457  0.95133442     0.08520
H2072       H  0.56005643  0.32214208  0.94295405     0.05290
C2073       C  0.70898548  0.22969450  0.51907272    -0.20510
C2074       C  0.68395991  0.23767005  0.54199119    -0.07080
C2075       C  0.69087878  0.24041693  0.57581392     0.13790
C2076       C  0.72258582  0.23490465  0.58602869    -0.20560
C2077       C  0.74761138  0.22697294  0.56320382    -0.07080
C2078       C  0.74089328  0.22454608  0.52931000     0.13780
C2079       C  0.76734633  0.21632076  0.50415427    -0.23910
H2080       H  0.70350721  0.22745590  0.99319851     0.15070
H2081       H  0.72798295  0.23693367  0.61195843     0.15100
C2082       C  0.66469994  0.24891198  0.60120771    -0.23860
H2083       H  0.75799511  0.21510829  0.97879027     0.05310
H2084       H  0.77690150  0.19183372  0.51133395     0.08530
H2085       H  0.78776025  0.23567822  0.50318733     0.08530
H2086       H  0.64397315  0.22995128  0.60215409     0.08520
H2087       H  0.65556522  0.27366448  0.59438564     0.08520
H2088       H  0.67415761  0.24973308  0.62655288     0.05290
C2089       C  0.60478347  0.77703141  0.52081933     0.02920
C2090       C  0.63823482  0.77330209  0.02591444    -0.13230
C2091       C  0.65024488  0.74153115  0.03090452     0.00420
C2092       C  0.62868900  0.71337913  0.03037729    -0.11750
C2093       C  0.59495760  0.71674635  0.52686591     0.02920
C2094       C  0.58329310  0.74859318  0.52143426    -0.11170
H2095       H  0.65457987  0.79511674  0.02758710     0.08510
H2096       H  0.63786568  0.68890110  0.03481863     0.06040
H2097       H  0.55714832  0.75135412  0.51993614     0.05890
C2098       C  0.81963891  0.68753606  0.10256512     0.02920
C2099       C  0.78840134  0.69170712  0.09026801    -0.13230
C2100       C  0.78071041  0.72224993  0.07553881     0.00420
C2101       C  0.80424532  0.74878792  0.07333147    -0.11750
C2102       C  0.83459819  0.74653840  0.08865405     0.02920
C2103       C  0.84167218  0.71550718  0.10337960    -0.11170
H2104       H  0.77060461  0.67078683  0.09069154     0.08510
H2105       H  0.79820873  0.77149958  0.06002179     0.06040
H2106       H  0.86449957  0.71248041  0.11483590     0.05890
C2107       C  0.67419907  0.94733624  0.19900300     0.02920
C2108       C  0.67487630  0.95703274  0.23206895    -0.13230
C2109       C  0.70504836  0.96216990  0.24710837     0.00420
C2110       C  0.73447830  0.95833690  0.22834965    -0.11750
C2111       C  0.73392313  0.94870813  0.19543690     0.02920
C2112       C  0.70382917  0.94189061  0.18147631    -0.11170
H2113       H  0.65219477  0.96244631  0.24529436     0.08510
H2114       H  0.75784893  0.96404236  0.23894226     0.06040
H2115       H  0.70355974  0.93476002  0.15590723     0.05890
C2116       C  0.75000046  0.52381824  0.42628235     0.02920
C2117       C  0.72160456  0.53072468  0.44489900    -0.13230
C2118       C  0.69072290  0.52642221  0.43183420     0.00420
C2119       C  0.68844490  0.51718928  0.39884021    -0.11750
C2120       C  0.71689280  0.51208693  0.37902176     0.02920
C2121       C  0.74773439  0.51508678  0.39309178    -0.11170
H2122       H  0.72333872  0.53686906  0.47067899     0.08510
H2123       H  0.66452855  0.51244340  0.38904905     0.06040
H2124       H  0.76960335  0.50878009  0.37897135     0.05890
C2125       C  0.51169487  0.62493128  0.27215858     0.02920
C2126       C  0.50429084  0.65836738  0.27358787    -0.13230
C2127       C  0.50425753  0.67367279  0.30398692     0.00420
C2128       C  0.51307645  0.65571056  0.33256624    -0.11750
C2129       C  0.51821205  0.62148730  0.33192507     0.02920
C2130       C  0.51828090  0.60648696  0.30132001    -0.11170
H2131       H  0.49624799  0.67167710  0.25161773     0.08510
H2132       H  0.51143645  0.66722725  0.35628016     0.06040
H2133       H  0.52015074  0.57983157  0.30058885     0.05890
C2134       C  0.92197113  0.84016840  0.35513790     0.02920
C2135       C  0.93120554  0.80718100  0.35326430    -0.13230
C2136       C  0.93565528  0.79338663  0.32222982     0.00420
C2137       C  0.93016744  0.81241837  0.29317858    -0.11750
C2138       C  0.92438912  0.84628170  0.29457184     0.02920
C2139       C  0.91915726  0.85970111  0.32564474    -0.11170
H2140       H  0.93661879  0.79292878  0.37572731     0.08510
H2141       H  0.93355746  0.80165306  0.26925693     0.06040
H2142       H  0.91583154  0.88609635  0.32689478     0.05890
O2143       O  0.52969285  0.91838373  0.01113729    -0.80340
O2144       O  0.93085014  0.95976240  0.16885605    -0.81890
O2145       O  0.53272038  0.93076727  0.12451923    -0.78910
O2146       O  0.94109402  0.87715646  0.09160783    -0.77290
O2147       O  0.90010646  0.89393493  0.05937160    -0.79080
O2148       O  0.55233656  0.98465362  0.11532052    -0.80020
O2149       O  0.96006666  0.91646046  0.15182046    -0.81340
O2150       O  0.51816536  0.89361673  0.06314502    -0.81630
Eu2151     Eu  0.98088222  0.92677458  0.09449201     2.39200
O2152       O  0.92839061  0.94743209  0.09704345    -0.89140
O2153       O  0.51560823  0.96435783  0.06017408    -0.92750
C2154       C  0.53361535  0.89560322  0.03440988     1.01940
C2155       C  0.94302077  0.93109379  0.17386405     1.01760
C2156       C  0.55438529  0.95482194  0.12776572     1.01710
C2157       C  0.91335512  0.87209827  0.07764705     0.99570
H2158       H  0.99118397  0.97825996  0.13933960     0.29310
O2159       O  0.98298028  0.97962240  0.11724872    -1.01530
H2160       H  0.96137792  0.90947428  0.03150272     0.29350
O2161       O  0.96175938  0.93122007  0.04043308    -1.04070
O2162       O  0.89796459  0.54968261  0.11771637    -0.81300
O2163       O  0.99852732  0.01055470  0.45813115    -0.80830
O2164       O  0.51231133  0.54600737  0.13397815    -0.79270
O2165       O  0.86046571  0.94896669  0.08479245    -0.82610
O2166       O  0.91398102  0.92233159  0.99098193    -0.80470
O2167       O  0.56578432  0.52012315  0.04353671    -0.79120
O2168       O  0.98137675  0.59155912  0.03378068    -0.80640
O2169       O  0.89181581  0.53641965  0.00034292    -0.82560
O2170       O  0.52455872  0.57558800  0.06372779    -0.79300
O2171       O  0.87223802  0.98260353  0.00942290    -0.81980
O2172       O  0.96062345  0.53475272  0.15679029    -0.77710
O2173       O  0.55256918  0.99155335  0.99793517    -0.77740
O2174       O  0.96608270  0.93456567  0.46894725    -0.77390
O2175       O  0.87482802  0.97676206  0.13048666    -0.80880
O2176       O  0.90697596  0.57404275  0.06506872    -0.80310
O2177       O  0.96785655  0.55243139  0.47563335    -0.78640
Eu2178     Eu  0.93020342  0.99972469  0.12003283     2.39770
Eu2179     Eu  0.99643240  0.96869581  0.00615703     2.39570
Eu2180     Eu  0.51649511  0.51714987  0.08206333     2.38400
Eu2181     Eu  0.90874793  0.95170772  0.04337186     2.39880
Eu2182     Eu  0.94340859  0.54118657  0.03153954     2.39790
O2183       O  0.94295091  0.98867805  0.00828441    -0.93050
O2184       O  0.96371541  0.53762776  0.08536286    -0.91940
C2185       C  0.89310328  0.57211684  0.09466708     1.02120
C2186       C  0.98648191  0.53947658  0.45379306     1.00840
C2187       C  0.98966411  0.54886079  0.15690841     1.00230
C2188       C  0.85455708  0.95934357  0.11437454     1.02240
C2189       C  0.93757621  0.91947806  0.46881218     1.01160
C2190       C  0.57230384  0.00936973  0.01440607     1.00010
C2191       C  0.50949674  0.59733175  0.04658266     1.00060
C2192       C  0.87015176  0.51233215  0.99678764     1.02680
H2193       H  0.51078233  0.53630700  0.01556487     0.30050
O2194       O  0.99622992  0.52086403  0.02908536    -1.05210
H2195       H  0.88721337  0.51100936  0.06755988     0.32100
O2196       O  0.90939237  0.00379287  0.06633932    -1.07770
C2197       C  0.96257050  0.89125382  0.21584451    -0.20510
C2198       C  0.93813496  0.91276558  0.20690286    -0.07080
C2199       C  0.90961838  0.91380394  0.22826944     0.13790
C2200       C  0.90535055  0.89134826  0.25638941    -0.20560
C2201       C  0.92930013  0.86875481  0.26416009    -0.07080
C2202       C  0.95900813  0.86990336  0.24434972     0.13780
C2203       C  0.98791911  0.85002169  0.25360991    -0.23910
H2204       H  0.98484139  0.89091340  0.20015623     0.15070
H2205       H  0.88323903  0.89140088  0.27244621     0.15100
C2206       C  0.88359497  0.93806128  0.22162671    -0.23860
H2207       H  0.01025926  0.85763426  0.23758589     0.05310
H2208       H  0.98277513  0.82321637  0.25038864     0.08530
H2209       H  0.99380983  0.85397890  0.27977909     0.08530
H2210       H  0.87418525  0.93496236  0.19658771     0.08520
H2211       H  0.89412884  0.96384716  0.22295249     0.08520
H2212       H  0.86250529  0.93446294  0.24022381     0.05290
C2213       C  0.95346296  0.85862002  0.40168578    -0.20510
C2214       C  0.92329865  0.85680542  0.38689495    -0.07080
C2215       C  0.89665336  0.87339316  0.40074020     0.13790
C2216       C  0.90152772  0.89308335  0.42809192    -0.20560
C2217       C  0.93249621  0.89665143  0.44158999    -0.07080
C2218       C  0.95846680  0.87810867  0.42879638     0.13780
C2219       C  0.99148833  0.87783877  0.44381002    -0.23910
H2220       H  0.97371684  0.84559605  0.39107489     0.15070
H2221       H  0.88135939  0.90643197  0.43833480     0.15100
C2222       C  0.86311133  0.86996289  0.38700072    -0.23860
H2223       H  0.50713783  0.85911653  0.43277578     0.05310
H2224       H  0.98807179  0.87144725  0.47098200     0.08530
H2225       H  0.00499134  0.90235132  0.43918740     0.08530
H2226       H  0.85467279  0.84330425  0.38794028     0.08520
H2227       H  0.86385067  0.88020990  0.36084642     0.08520
H2228       H  0.84481966  0.88348840  0.40159314     0.05290
C2229       C  0.96993959  0.57716404  0.20678319    -0.20510
C2230       C  0.99670542  0.56981856  0.18541392    -0.07080
C2231       C  0.52875810  0.58230942  0.19237316     0.13790
C2232       C  0.53286167  0.60081376  0.22061401    -0.20560
C2233       C  0.50604721  0.60735981  0.24174594    -0.07080
C2234       C  0.97424278  0.59559502  0.23479158     0.13780
C2235       C  0.94484958  0.60194761  0.25732518    -0.23910
H2236       H  0.94526918  0.56831159  0.20182524     0.15070
H2237       H  0.55717638  0.61000642  0.22651598     0.15100
C2238       C  0.55896344  0.57612403  0.17094074    -0.23860
H2239       H  0.92178563  0.59048446  0.24850554     0.05310
H2240       H  0.94197854  0.62909142  0.25819002     0.08530
H2241       H  0.94816802  0.59131992  0.28287514     0.08530
H2242       H  0.55702136  0.58756888  0.14546624     0.08520
H2243       H  0.56193075  0.54899129  0.16991647     0.08520
H2244       H  0.58163762  0.58723026  0.18092356     0.05290
C2245       C  0.98510777  0.60650604  0.38335002    -0.20510
C2246       C  0.51295783  0.60051590  0.36344881    -0.07080
C2247       C  0.53229718  0.57381154  0.37299064     0.13790
C2248       C  0.52269037  0.55368091  0.40196437    -0.20560
C2249       C  0.99491492  0.56025832  0.42230197    -0.07080
C2250       C  0.97636686  0.58782526  0.41276435     0.13780
C2251       C  0.94665703  0.59805907  0.43254882    -0.23910
H2252       H  0.96957723  0.62618414  0.37561465     0.15070
H2253       H  0.53763191  0.53333292  0.40915812     0.15100
C2254       C  0.56353138  0.56644823  0.35397128    -0.23860
H2255       H  0.93333574  0.61764159  0.41928788     0.05310
H2256       H  0.95371290  0.60784568  0.45643568     0.08530
H2257       H  0.92970588  0.57622924  0.43751211     0.08530
H2258       H  0.57038510  0.58499992  0.33317265     0.08520
H2259       H  0.56079017  0.54146759  0.34381726     0.08520
H2260       H  0.58405676  0.56667449  0.37100574     0.05290
C2261       C  0.98653975  0.76269719  0.32201454    -0.20510
C2262       C  0.95237272  0.76199572  0.31919237    -0.07080
C2263       C  0.93557330  0.73254464  0.31064361     0.13790
C2264       C  0.95336036  0.70433834  0.30507936    -0.20560
C2265       C  0.98755087  0.70501575  0.30782051    -0.07080
C2266       C  0.50435823  0.73447894  0.31644456     0.13780
C2267       C  0.54106088  0.73634960  0.31893198    -0.23910
H2268       H  0.49935126  0.78564739  0.32800086     0.15070
H2269       H  0.94050430  0.68144724  0.29899652     0.15100
C2270       C  0.89892085  0.73084472  0.30783400    -0.23860
H2271       H  0.55038738  0.76155560  0.32495431     0.05310
H2272       H  0.55309095  0.73033551  0.29480647     0.08530
H2273       H  0.54809694  0.71841448  0.33882934     0.08530
H2274       H  0.89217728  0.74902403  0.28800394     0.08520
H2275       H  0.88672532  0.73673447  0.33192123     0.08520
H2276       H  0.88956073  0.70573704  0.30153614     0.05290
C2277       C  0.60703826  0.54248570  0.47172147    -0.20510
C2278       C  0.60456001  0.51777108  0.49776218    -0.07080
C2279       C  0.63094704  0.99748751  0.00322929     0.13790
C2280       C  0.65900692  0.50158658  0.48169699    -0.20560
C2281       C  0.66120567  0.52542789  0.45479089    -0.07080
C2282       C  0.63529870  0.54678352  0.45023817     0.13780
C2283       C  0.63749369  0.57413635  0.42310989    -0.23910
H2284       H  0.58634464  0.55768942  0.46755206     0.15070
H2285       H  0.67883800  0.98518081  0.48509901     0.15100
C2286       C  0.62887593  0.97062893  0.03088707    -0.23860
H2287       H  0.61546902  0.58916410  0.42394662     0.05310
H2288       H  0.63947946  0.56354973  0.39829441     0.08530
H2289       H  0.65938334  0.59097970  0.42612233     0.08530
H2290       H  0.60814603  0.95246849  0.02731864     0.08520
H2291       H  0.62488291  0.98190800  0.05520019     0.08520
H2292       H  0.65173814  0.95692489  0.03164041     0.05290
C2293       C  0.80712053  0.54442175  0.43598284    -0.20510
C2294       C  0.78091960  0.52108939  0.44359917    -0.07080
C2295       C  0.78406960  0.49554690  0.46835420     0.13790
C2296       C  0.81286252  0.99461865  0.48562149    -0.20560
C2297       C  0.83970302  0.51768406  0.47818237    -0.07080
C2298       C  0.83661704  0.54276300  0.45257294     0.13780
C2299       C  0.86484167  0.56599938  0.44046449    -0.23910
H2300       H  0.80464212  0.56364523  0.41654119     0.15070
H2301       H  0.81433646  0.97518352  0.00504624     0.15100
C2302       C  0.75743592  0.96852684  0.47615656    -0.23860
H2303       H  0.85827565  0.58367227  0.42006431     0.05310
H2304       H  0.88419311  0.55057934  0.43029748     0.08530
H2305       H  0.87352434  0.58085115  0.46102674     0.08530
H2306       H  0.75129640  0.95629424  0.45303048     0.08520
H2307       H  0.73527946  0.97917032  0.48725051     0.08520
H2308       H  0.76508683  0.94909855  0.49431382     0.05290
C2309       C  0.61650372  0.92582421  0.19050483    -0.20510
C2310       C  0.64346907  0.94792905  0.18072692    -0.07080
C2311       C  0.64077274  0.97109382  0.15355845     0.13790
C2312       C  0.61203378  0.97098809  0.13640454    -0.20560
C2313       C  0.58473940  0.94935507  0.14596837    -0.07080
C2314       C  0.58703630  0.92630801  0.17349417     0.13780
C2315       C  0.55835184  0.90336203  0.18594634    -0.23910
H2316       H  0.61846039  0.90835872  0.21162871     0.15070
H2317       H  0.61081988  0.98872101  0.11537488     0.15100
C2318       C  0.66756630  0.99713383  0.14297905    -0.23860
H2319       H  0.56410598  0.88790074  0.20834075     0.05310
H2320       H  0.55152853  0.88633497  0.16636658     0.08530
H2321       H  0.53725831  0.91831237  0.19280245     0.08530
H2322       H  0.68884773  0.98519655  0.13159868     0.08520
H2323       H  0.67475284  0.51098556  0.16481487     0.08520
H2324       H  0.65961459  0.51553337  0.12392877     0.05290
C2325       C  0.78297791  0.92254713  0.17122626    -0.20510
C2326       C  0.76437749  0.95060290  0.17377691    -0.07080
C2327       C  0.77513186  0.98052054  0.15578789     0.13790
C2328       C  0.80287938  0.98104621  0.13384902    -0.20560
C2329       C  0.82185264  0.95324448  0.13141669    -0.07080
C2330       C  0.81258434  0.92402222  0.15162144     0.13850
C2331       C  0.83415676  0.89501867  0.15518168    -0.23910
H2332       H  0.77529518  0.89997310  0.18601655     0.15070
H2333       H  0.81115941  0.50408126  0.12010457     0.15100
C2334       C  0.75857290  0.51244635  0.16108672    -0.23860
H2335       H  0.83860084  0.88981474  0.18188698     0.05310
H2336       H  0.85848506  0.89974239  0.14182235     0.08530
H2337       H  0.82160462  0.87254525  0.14590038     0.08530
H2338       H  0.75939414  0.01846250  0.18762968     0.08520
H2339       H  0.73278829  0.50994749  0.15441720     0.08520
H2340       H  0.77071349  0.53367284  0.14563259     0.05290
C2341       C  0.72332595  0.50576979  0.28466568    -0.20510
C2342       C  0.70648006  0.97499315  0.28107149    -0.07080
C2343       C  0.69292047  0.95660135  0.30986340     0.13790
C2344       C  0.69664436  0.96939760  0.34138313    -0.20560
C2345       C  0.71381664  0.49998466  0.34496482    -0.07080
C2346       C  0.72707415  0.51852781  0.31617652     0.13780
C2347       C  0.74438546  0.55215790  0.31849148    -0.23910
H2348       H  0.73360185  0.51992042  0.26258059     0.15070
H2349       H  0.68648014  0.95522875  0.36350073     0.15100
C2350       C  0.67561970  0.92295320  0.30763613    -0.23860
H2351       H  0.75193964  0.56383822  0.29347703     0.05310
H2352       H  0.76682291  0.54980668  0.33263460     0.08530
H2353       H  0.72774954  0.56893018  0.33123451     0.08530
H2354       H  0.69226199  0.90611474  0.29500232     0.08520
H2355       H  0.65319100  0.92525396  0.29347908     0.08520
H2356       H  0.66801418  0.91136270  0.33267576     0.05290
C2357       C  0.82571174  0.63112017  0.08293844    -0.20510
C2358       C  0.83176184  0.65352622  0.10776782    -0.07080
C2359       C  0.85368630  0.64485653  0.13267542     0.13790
C2360       C  0.87265084  0.61706198  0.12892934    -0.20560
C2361       C  0.86913764  0.59718470  0.10168056    -0.07080
C2362       C  0.84378148  0.60290315  0.07984861     0.13780
C2363       C  0.83594851  0.57961606  0.05284204    -0.23910
H2364       H  0.80850946  0.63687421  0.06411928     0.15070
H2365       H  0.89102118  0.61162410  0.14667380     0.15100
C2366       C  0.85750013  0.66413639  0.16339530    -0.23860
H2367       H  0.81373862  0.58657805  0.03985885     0.05310
H2368       H  0.83128157  0.55388172  0.06389524     0.08530
H2369       H  0.85654710  0.58028683  0.03379694     0.08530
H2370       H  0.83972405  0.68389125  0.16529966     0.08520
H2371       H  0.88284562  0.67552049  0.16336123     0.08520
H2372       H  0.85298674  0.64703655  0.18589423     0.05290
C2373       C  0.90997986  0.80983793  0.08557556    -0.20510
C2374       C  0.89398417  0.83969269  0.08286961    -0.07080
C2375       C  0.85906170  0.83806038  0.08357850     0.13790
C2376       C  0.84180098  0.80764431  0.09068470    -0.20560
C2377       C  0.85712104  0.77736612  0.08978803    -0.07080
C2378       C  0.89225587  0.77865120  0.08718932     0.13780
C2379       C  0.91192445  0.74825986  0.08437999    -0.23910
H2380       H  0.93658647  0.81087908  0.08430744     0.15070
H2381       H  0.81539586  0.80766249  0.09464507     0.15100
C2382       C  0.83892435  0.86734723  0.07464421    -0.23860
H2383       H  0.93770395  0.75495911  0.07539224     0.05310
H2384       H  0.90131205  0.73154909  0.06621110     0.08530
H2385       H  0.91321353  0.73526366  0.10920590     0.08530
H2386       H  0.84499502  0.88833778  0.08990532     0.08520
H2387       H  0.84369199  0.87513335  0.04789250     0.08520
H2388       H  0.81209383  0.86138494  0.07844739     0.05290
C2389       C  0.55166425  0.67780568  0.50675501    -0.20510
C2390       C  0.57141575  0.68738789  0.03252894    -0.07080
C2391       C  0.56768112  0.66949091  0.06378199     0.13790
C2392       C  0.54571001  0.64154429  0.06786423    -0.20560
C2393       C  0.52708640  0.63070379  0.04167474    -0.07080
C2394       C  0.52961401  0.64963472  0.01088377     0.13780
C2395       C  0.00992859  0.63988521  0.48208393    -0.23910
H2396       H  0.55403724  0.69206293  0.48307316     0.15070
H2397       H  0.54358979  0.62750145  0.09167846     0.15100
C2398       C  0.58634188  0.67996631  0.09322436    -0.23860
H2399       H  0.01573799  0.65672858  0.45958455     0.05310
H2400       H  0.98349200  0.64137341  0.98918594     0.08530
H2401       H  0.01512809  0.61422927  0.47552091     0.08530
H2402       H  0.58189402  0.70624527  0.09800158     0.08520
H2403       H  0.61297641  0.67718042  0.08846195     0.08520
H2404       H  0.57858783  0.66452366  0.11622852     0.05290
C2405       C  0.59333890  0.82787400  0.05008585    -0.20510
C2406       C  0.59112135  0.81042138  0.02106734    -0.07080
C2407       C  0.57418670  0.82406817  0.49426196     0.13790
C2408       C  0.55782942  0.85361166  0.99816313    -0.20560
C2409       C  0.55702298  0.86913704  0.02855331    -0.07080
C2410       C  0.57656584  0.85695857  0.05426923     0.13780
C2411       C  0.58024572  0.87450155  0.08618840    -0.23910
H2412       H  0.60706049  0.81777605  0.07029011     0.15070
H2413       H  0.54453373  0.86376923  0.47789920     0.15100
C2414       C  0.57340614  0.80757287  0.46159871    -0.23860
H2415       H  0.59926183  0.86358297  0.10153248     0.05310
H2416       H  0.55692042  0.87225897  0.10163063     0.08530
H2417       H  0.58773524  0.90112358  0.08039785     0.08530
H2418       H  0.56085965  0.78250478  0.46520332     0.08520
H2419       H  0.59887394  0.80525470  0.45133455     0.08520
H2420       H  0.56005587  0.82214198  0.44295410     0.05290
C2421       C  0.70898544  0.72969424  0.01907269    -0.20510
C2422       C  0.68395990  0.73766965  0.04199127    -0.07080
C2423       C  0.69087880  0.74041613  0.07581403     0.13790
C2424       C  0.72258580  0.73490350  0.08602875    -0.20560
C2425       C  0.74761135  0.72697196  0.06320378    -0.07080
C2426       C  0.74089323  0.72454557  0.02930990     0.13780
C2427       C  0.76734621  0.71632040  0.00415403    -0.23910
H2428       H  0.70350686  0.72745588  0.49319871     0.15070
H2429       H  0.72798293  0.73693223  0.11195852     0.15100
C2430       C  0.66470004  0.74891120  0.10120791    -0.23860
H2431       H  0.75799497  0.71510887  0.47879051     0.05310
H2432       H  0.77690135  0.69183329  0.01133350     0.08530
H2433       H  0.78776018  0.73567781  0.00318718     0.08530
H2434       H  0.64397312  0.72995066  0.10215417     0.08520
H2435       H  0.65556551  0.77366382  0.09438600     0.08520
H2436       H  0.67415773  0.74973203  0.12655309     0.05290
C2437       C  0.60478412  0.77703174  0.02081925     0.02920
C2438       C  0.63823419  0.77330202  0.52591452    -0.13230
C2439       C  0.65024447  0.74153119  0.53090459     0.00420
C2440       C  0.62868879  0.71337902  0.53037733    -0.11750
C2441       C  0.59495783  0.71674670  0.02686590     0.02920
C2442       C  0.58329355  0.74859363  0.02143423    -0.11170
H2443       H  0.65457909  0.79511678  0.52758721     0.08510
H2444       H  0.63786565  0.68890106  0.53481867     0.06040
H2445       H  0.55714880  0.75135476  0.01993612     0.05890
C2446       C  0.81963932  0.68753646  0.60256321     0.02920
C2447       C  0.78840174  0.69170762  0.59026607    -0.13230
C2448       C  0.78071010  0.72225111  0.57553880     0.00420
C2449       C  0.80424427  0.74878973  0.57333338    -0.11750
C2450       C  0.83459753  0.74653929  0.58865478     0.02920
C2451       C  0.84167237  0.71550762  0.60337846    -0.11170
H2452       H  0.77060535  0.67078713  0.59068856     0.08510
H2453       H  0.79820707  0.77150260  0.56002623     0.06040
H2454       H  0.86450027  0.71248097  0.61483408     0.05890
C2455       C  0.67419850  0.94733514  0.69900270     0.02920
C2456       C  0.67487547  0.95703161  0.73206869    -0.13230
C2457       C  0.70504744  0.96216897  0.74710824     0.00420
C2458       C  0.73447747  0.95833627  0.72834967    -0.11750
C2459       C  0.73392251  0.94870774  0.69543691     0.02920
C2460       C  0.70382874  0.94188977  0.68147617    -0.11170
H2461       H  0.65219384  0.96244500  0.74529402     0.08510
H2462       H  0.75784801  0.96404183  0.73894240     0.06040
H2463       H  0.70355955  0.93475893  0.65590716     0.05890
C2464       C  0.75000053  0.52381700  0.92628156     0.02920
C2465       C  0.72160465  0.53072352  0.94489819    -0.13230
C2466       C  0.69072297  0.52642100  0.93183345     0.00420
C2467       C  0.68844493  0.51718793  0.89883952    -0.11750
C2468       C  0.71689281  0.51208551  0.87902108     0.02920
C2469       C  0.74773442  0.51508538  0.89309104    -0.11170
H2470       H  0.72333884  0.53686807  0.97067813     0.08510
H2471       H  0.66452856  0.51244208  0.88904838     0.06040
H2472       H  0.76960337  0.50877865  0.87897061     0.05890
C2473       C  0.51169481  0.62493142  0.77215847     0.02920
C2474       C  0.50429074  0.65836752  0.77358763    -0.13230
C2475       C  0.50425730  0.67367300  0.80398663     0.00420
C2476       C  0.51307615  0.65571088  0.83256604    -0.11750
C2477       C  0.51821181  0.62148763  0.83192500     0.02920
C2478       C  0.51828076  0.60648720  0.80131998    -0.11170
H2479       H  0.49624792  0.67167716  0.75161743     0.08510
H2480       H  0.51143608  0.66722765  0.85627991     0.06040
H2481       H  0.52015063  0.57983180  0.80058890     0.05890
C2482       C  0.92197136  0.84016839  0.85513789     0.02920
C2483       C  0.93120566  0.80718098  0.85326418    -0.13230
C2484       C  0.93565510  0.79338662  0.82222966     0.00420
C2485       C  0.93016698  0.81241838  0.79317851    -0.11750
C2486       C  0.92438896  0.84628178  0.79457184     0.02920
C2487       C  0.91915740  0.85970116  0.82564480    -0.11170
H2488       H  0.93661910  0.79292875  0.87572712     0.08510
H2489       H  0.93355666  0.80165304  0.76925684     0.06040
H2490       H  0.91583186  0.88609643  0.82689494     0.05890
O2491       O  0.52969187  0.91838304  0.51113764    -0.80340
O2492       O  0.93085087  0.95976329  0.66885666    -0.81890
O2493       O  0.53271991  0.93076659  0.62451918    -0.78910
O2494       O  0.94109216  0.87715719  0.59160914    -0.77290
O2495       O  0.90010373  0.89393482  0.55937332    -0.79080
O2496       O  0.55233660  0.98465276  0.61532025    -0.80020
O2497       O  0.96006646  0.91646084  0.65182082    -0.81340
O2498       O  0.51816410  0.89361612  0.56314534    -0.81630
Eu2499     Eu  0.98088129  0.92677451  0.59449220     2.39200
O2500       O  0.92839005  0.94743248  0.59704385    -0.89140
O2501       O  0.51560803  0.96435761  0.56017412    -0.92750
C2502       C  0.53361415  0.89560248  0.53441024     1.01940
C2503       C  0.94302121  0.93109453  0.67386460     1.01760
C2504       C  0.55438502  0.95482104  0.62776550     1.01710
C2505       C  0.91335289  0.87209873  0.57764919     0.99570
H2506       H  0.99118377  0.97825985  0.63933989     0.29310
O2507       O  0.98298001  0.97962231  0.61724900    -1.01530
H2508       H  0.96137679  0.90947358  0.53150309     0.29350
O2509       O  0.96175842  0.93121952  0.54043328    -1.04070
O2510       O  0.89796507  0.54968317  0.61771600    -0.81300
O2511       O  0.99852759  0.01055530  0.95813102    -0.80830
O2512       O  0.51231127  0.54600709  0.63397828    -0.79270
O2513       O  0.86046559  0.94896713  0.58479405    -0.82610
O2514       O  0.91398029  0.92233119  0.49098248    -0.80470
O2515       O  0.56578406  0.52012276  0.54353706    -0.79120
O2516       O  0.98137711  0.59155885  0.53378035    -0.80640
O2517       O  0.89181612  0.53641947  0.50034304    -0.82560
O2518       O  0.52455863  0.57558760  0.56372797    -0.79300
O2519       O  0.87223745  0.98260388  0.50942357    -0.81980
O2520       O  0.96062468  0.53475363  0.65678991    -0.77710
O2521       O  0.55256869  0.99155245  0.49793505    -0.77740
O2522       O  0.96608354  0.93456584  0.96894697    -0.77390
O2523       O  0.87482858  0.97676174  0.63048855    -0.80880
O2524       O  0.90697646  0.57404287  0.56506820    -0.80310
O2525       O  0.96785628  0.55243191  0.97563338    -0.78640
Eu2526     Eu  0.93020342  0.99972511  0.62003315     2.39770
Eu2527     Eu  0.99643175  0.96869533  0.50615731     2.39570
Eu2528     Eu  0.51649481  0.51714952  0.58206351     2.38400
Eu2529     Eu  0.90874705  0.95170751  0.54337244     2.39880
Eu2530     Eu  0.94340891  0.54118627  0.53153952     2.39790
O2531       O  0.94295032  0.98867764  0.50828491    -0.93050
O2532       O  0.96371609  0.53762808  0.58536270    -0.91940
C2533       C  0.89310372  0.57211718  0.59466649     1.02120
C2534       C  0.98648178  0.53947719  0.95379314     1.00840
C2535       C  0.98966545  0.54886144  0.65690805     1.00230
C2536       C  0.85455750  0.95934334  0.61437655     1.02240
C2537       C  0.93757701  0.91947833  0.96881178     1.01160
C2538       C  0.57230359  0.00936887  0.51440568     1.00010
C2539       C  0.50949673  0.59733134  0.54658274     1.00060
C2540       C  0.87015176  0.51233218  0.49678815     1.02680
H2541       H  0.51078232  0.53630663  0.51556495     0.30050
O2542       O  0.99623020  0.52086371  0.52908518    -1.05210
H2543       H  0.88721339  0.51100960  0.56756041     0.32100
O2544       O  0.90939204  0.00379293  0.56633968    -1.07770
C2545       C  0.96257046  0.89125351  0.71584436    -0.20510
C2546       C  0.93813562  0.91276641  0.70690347    -0.07080
C2547       C  0.90961972  0.91380585  0.72827079     0.13790
C2548       C  0.90535135  0.89134957  0.75639025    -0.20560
C2549       C  0.92930015  0.86875499  0.76416017    -0.07080
C2550       C  0.95900790  0.86990288  0.74434942     0.13780
C2551       C  0.98791852  0.85002042  0.75360910    -0.23910
H2552       H  0.98484097  0.89091233  0.70015563     0.15070
H2553       H  0.88324019  0.89140291  0.77244748     0.15100
C2554       C  0.88359800  0.93806555  0.72162987    -0.23860
H2555       H  0.01025869  0.85763278  0.73758503     0.05310
H2556       H  0.98277401  0.82321525  0.75038741     0.08530
H2557       H  0.99380954  0.85397709  0.77977829     0.08530
H2558       H  0.87418774  0.93496916  0.69659077     0.08520
H2559       H  0.89413379  0.96385055  0.72295695     0.08520
H2560       H  0.86250841  0.93446767  0.74022711     0.05290
C2561       C  0.95346346  0.85862003  0.90168557    -0.20510
C2562       C  0.92329906  0.85680537  0.88689493    -0.07080
C2563       C  0.89665382  0.87339309  0.90074027     0.13790
C2564       C  0.90152835  0.89308344  0.92809182    -0.20560
C2565       C  0.93249694  0.89665163  0.94158967    -0.07080
C2566       C  0.95846745  0.87810879  0.92879606     0.13780
C2567       C  0.99148902  0.87783887  0.94380963    -0.23910
H2568       H  0.97371729  0.84559602  0.89107462     0.15070
H2569       H  0.88136005  0.90643207  0.93833477     0.15100
C2570       C  0.86311168  0.86996265  0.88700106    -0.23860
H2571       H  0.50713850  0.85911638  0.93277539     0.05310
H2572       H  0.98807253  0.87144742  0.97098162     0.08530
H2573       H  0.00499204  0.90235141  0.93918693     0.08530
H2574       H  0.85467321  0.84330399  0.88794081     0.08520
H2575       H  0.86385081  0.88020953  0.86084672     0.08520
H2576       H  0.84482007  0.88348818  0.90159354     0.05290
C2577       C  0.96994091  0.57716463  0.70678284    -0.20510
C2578       C  0.99670678  0.56981923  0.68541357    -0.07080
C2579       C  0.52875803  0.58230940  0.69237314     0.13790
C2580       C  0.53286161  0.60081380  0.72061395    -0.20560
C2581       C  0.50604716  0.60735984  0.74174590    -0.07080
C2582       C  0.97424402  0.59559549  0.73479131     0.13780
C2583       C  0.94485075  0.60194794  0.75732489    -0.23910
H2584       H  0.94527051  0.56831220  0.70182485     0.15070
H2585       H  0.55717632  0.61000653  0.72651587     0.15100
C2586       C  0.55896336  0.57612405  0.67094069    -0.23860
H2587       H  0.92178683  0.59048480  0.74850515     0.05310
H2588       H  0.94197965  0.62909173  0.75818983     0.08530
H2589       H  0.94816915  0.59132015  0.78287481     0.08530
H2590       H  0.55702122  0.58756882  0.64546617     0.08520
H2591       H  0.56193073  0.54899131  0.66991647     0.08520
H2592       H  0.58163753  0.58723035  0.68092345     0.05290
C2593       C  0.98510772  0.60650652  0.88334996    -0.20510
C2594       C  0.51295763  0.60051630  0.86344879    -0.07080
C2595       C  0.53229697  0.57381193  0.87299061     0.13790
C2596       C  0.52269016  0.55368131  0.90196434    -0.20560
C2597       C  0.99491480  0.56025891  0.92230206    -0.07080
C2598       C  0.97636674  0.58782580  0.91276433     0.13780
C2599       C  0.94665688  0.59805965  0.93254874    -0.23910
H2600       H  0.96957720  0.62618460  0.87561450     0.15070
H2601       H  0.53763169  0.53333329  0.90915806     0.15100
C2602       C  0.56353116  0.56644859  0.85397123    -0.23860
H2603       H  0.93333568  0.61764224  0.91928777     0.05310
H2604       H  0.95371271  0.60784623  0.95643563     0.08530
H2605       H  0.92970565  0.57622988  0.93751196     0.08530
H2606       H  0.57038492  0.58500031  0.83317264     0.08520
H2607       H  0.56078991  0.54146798  0.84381718     0.08520
H2608       H  0.58405653  0.56667479  0.87100570     0.05290
C2609       C  0.98653972  0.76269748  0.82201431    -0.20510
C2610       C  0.95237271  0.76199584  0.81919204    -0.07080
C2611       C  0.93557346  0.73254471  0.81064316     0.13790
C2612       C  0.95336069  0.70433852  0.80507892    -0.20560
C2613       C  0.98755118  0.70501609  0.80782021    -0.07080
C2614       C  0.50435788  0.73447917  0.81644409     0.13780
C2615       C  0.54106052  0.73634990  0.81893158    -0.23910
H2616       H  0.49935081  0.78564760  0.82800034     0.15070
H2617       H  0.94050476  0.68144736  0.79899602     0.15100
C2618       C  0.89892102  0.73084461  0.80783346    -0.23860
H2619       H  0.55038697  0.76155593  0.82495388     0.05310
H2620       H  0.55309066  0.73033578  0.79480612     0.08530
H2621       H  0.54809658  0.71841484  0.83882901     0.08530
H2622       H  0.89217741  0.74902391  0.78800340     0.08520
H2623       H  0.88672540  0.73673427  0.83192067     0.08520
H2624       H  0.88956105  0.70573690  0.80153553     0.05290
C2625       C  0.60703862  0.54248552  0.97172081    -0.20510
C2626       C  0.60456028  0.51777120  0.99776181    -0.07080
C2627       C  0.63094682  0.99748689  0.50322851     0.13790
C2628       C  0.65900694  0.50158601  0.98169653    -0.20560
C2629       C  0.66120576  0.52542702  0.95479016    -0.07080
C2630       C  0.63529897  0.54678286  0.95023735     0.13780
C2631       C  0.63749409  0.57413544  0.92310880    -0.23910
H2632       H  0.58634511  0.55768937  0.96755130     0.15070
H2633       H  0.67883795  0.98518062  0.98509967     0.15100
C2634       C  0.62887580  0.97062793  0.53088591    -0.23860
H2635       H  0.61546961  0.58916345  0.92394551     0.05310
H2636       H  0.63947959  0.56354855  0.89829344     0.08530
H2637       H  0.65938394  0.59097860  0.92612095     0.08530
H2638       H  0.60814611  0.95246737  0.52731709     0.08520
H2639       H  0.62488250  0.98190658  0.55519920     0.08520
H2640       H  0.65173815  0.95692411  0.53163919     0.05290
C2641       C  0.80712059  0.54442075  0.93598180    -0.20510
C2642       C  0.78091971  0.52108838  0.94359834    -0.07080
C2643       C  0.78406973  0.49554620  0.96835370     0.13790
C2644       C  0.81286282  0.99461780  0.98562102    -0.20560
C2645       C  0.83970301  0.51768378  0.97818183    -0.07080
C2646       C  0.83661705  0.54276236  0.95257206     0.13780
C2647       C  0.86484164  0.56599877  0.94046355    -0.23910
H2648       H  0.80464218  0.56364399  0.91653992     0.15070
H2649       H  0.81433603  0.97518426  0.50504663     0.15100
C2650       C  0.75743638  0.96852554  0.97615609    -0.23860
H2651       H  0.85827569  0.58367133  0.92006307     0.05310
H2652       H  0.88419334  0.55057876  0.93029700     0.08530
H2653       H  0.87352398  0.58085088  0.96102570     0.08530
H2654       H  0.75129710  0.95629273  0.95303005     0.08520
H2655       H  0.73527974  0.97916890  0.98724981     0.08520
H2656       H  0.76508735  0.94909745  0.99431352     0.05290
C2657       C  0.61650294  0.92582349  0.69050497    -0.20510
C2658       C  0.64346862  0.94792771  0.68072644    -0.07080
C2659       C  0.64077262  0.97109179  0.65355731     0.13790
C2660       C  0.61203373  0.97098597  0.63640339    -0.20560
C2661       C  0.58473904  0.94935378  0.64596797    -0.07080
C2662       C  0.58703552  0.92630737  0.67349436     0.13780
C2663       C  0.55835062  0.90336229  0.68594721    -0.23910
H2664       H  0.61845933  0.90835854  0.71162935     0.15070
H2665       H  0.61082007  0.98871834  0.61537323     0.15100
C2666       C  0.66756633  0.99713135  0.64297721    -0.23860
H2667       H  0.56410451  0.88790144  0.70834200     0.05310
H2668       H  0.55152683  0.88633482  0.66636796     0.08530
H2669       H  0.53725748  0.91831332  0.69280293     0.08530
H2670       H  0.68884741  0.98519360  0.63159673     0.08520
H2671       H  0.67475305  0.51098367  0.66481232     0.08520
H2672       H  0.65961385  0.51553123  0.62392666     0.05290
C2673       C  0.78297927  0.92254777  0.67123015    -0.20510
C2674       C  0.76437704  0.95060252  0.67377739    -0.07080
C2675       C  0.77513067  0.98051950  0.65578679     0.13790
C2676       C  0.80287845  0.98104478  0.63384834    -0.20560
C2677       C  0.82185332  0.95324391  0.63141905    -0.07080
C2678       C  0.81258662  0.92402323  0.65162697     0.13850
C2679       C  0.83416160  0.89502229  0.65519297    -0.23910
H2680       H  0.77529752  0.89997466  0.68602241     0.15070
H2681       H  0.81115775  0.50407880  0.62010120     0.15100
C2682       C  0.75857088  0.51244525  0.66108248    -0.23860
H2683       H  0.83860377  0.88982223  0.68189930     0.05310
H2684       H  0.85849064  0.89974679  0.64183529     0.08530
H2685       H  0.82161234  0.87254621  0.64591393     0.08530
H2686       H  0.75939186  0.01846240  0.68762684     0.08520
H2687       H  0.73278666  0.50994552  0.65441214     0.08520
H2688       H  0.77071157  0.53367129  0.64562776     0.05290
C2689       C  0.72332556  0.50576860  0.78466505    -0.20510
C2690       C  0.70647908  0.97499218  0.78107133    -0.07080
C2691       C  0.69291960  0.95660030  0.80986321     0.13790
C2692       C  0.69664364  0.96939646  0.84138295    -0.20560
C2693       C  0.71381661  0.49998327  0.84496417    -0.07080
C2694       C  0.72707411  0.51852644  0.81617589     0.13780
C2695       C  0.74438576  0.55215636  0.81849082    -0.23910
H2696       H  0.73360143  0.51991924  0.76257995     0.15070
H2697       H  0.68647947  0.95522758  0.86350055     0.15100
C2698       C  0.67561886  0.92295214  0.80763588    -0.23860
H2699       H  0.75193992  0.56383669  0.79347636     0.05310
H2700       H  0.76682327  0.54980489  0.83263380     0.08530
H2701       H  0.72775008  0.56892878  0.83123398     0.08530
H2702       H  0.69226113  0.90611374  0.79500197     0.08520
H2703       H  0.65319011  0.92525292  0.79347891     0.08520
H2704       H  0.66801342  0.91136157  0.83267551     0.05290
C2705       C  0.82571251  0.63112061  0.58293654    -0.20510
C2706       C  0.83176228  0.65352668  0.60776595    -0.07080
C2707       C  0.85368628  0.64485697  0.63267399     0.13790
C2708       C  0.87265080  0.61706236  0.62892833    -0.20560
C2709       C  0.86913797  0.59718502  0.60167956    -0.07080
C2710       C  0.84378219  0.60290351  0.57984713     0.13780
C2711       C  0.83594960  0.57961642  0.55284045    -0.23910
H2712       H  0.80851055  0.63687469  0.56411708     0.15070
H2713       H  0.89102085  0.61162448  0.64667311     0.15100
C2714       C  0.85749968  0.66413689  0.66339390    -0.23860
H2715       H  0.81373983  0.58657834  0.53985702     0.05310
H2716       H  0.83128265  0.55388206  0.56389358     0.08530
H2717       H  0.85654837  0.58028732  0.53379556     0.08530
H2718       H  0.83972360  0.68389177  0.66529797     0.08520
H2719       H  0.88284516  0.67552094  0.66336019     0.08520
H2720       H  0.85298595  0.64703708  0.68589282     0.05290
C2721       C  0.90997870  0.80983833  0.58557253    -0.20510
C2722       C  0.89398246  0.83969316  0.58287316    -0.07080
C2723       C  0.85905988  0.83806098  0.58358838     0.13790
C2724       C  0.84179988  0.80764428  0.59069332    -0.20560
C2725       C  0.85712011  0.77736658  0.58979006    -0.07080
C2726       C  0.89225468  0.77865175  0.58718537     0.13780
C2727       C  0.91192231  0.74826065  0.58436752    -0.23910
H2728       H  0.93658535  0.81087958  0.58429927     0.15070
H2729       H  0.81539496  0.80766153  0.59465679     0.15100
C2730       C  0.83892167  0.86734889  0.57466089    -0.23860
H2731       H  0.93770049  0.75496075  0.57537570     0.05310
H2732       H  0.90130601  0.73155273  0.56619830     0.08530
H2733       H  0.91321562  0.73526080  0.60919104     0.08530
H2734       H  0.84499814  0.88833869  0.58992072     0.08520
H2735       H  0.84368308  0.87513572  0.54790862     0.08520
H2736       H  0.81209153  0.86138770  0.57847120     0.05290
C2737       C  0.55166429  0.67780615  0.00675500    -0.20510
C2738       C  0.57141570  0.68738745  0.53252895    -0.07080
C2739       C  0.56768111  0.66949049  0.56378202     0.13790
C2740       C  0.54571003  0.64154386  0.56786427    -0.20560
C2741       C  0.52708642  0.63070334  0.54167480    -0.07080
C2742       C  0.52961399  0.64963424  0.51088381     0.13780
C2743       C  0.00992831  0.63988538  0.98208434    -0.23910
H2744       H  0.55403733  0.69206340  0.98307314     0.15070
H2745       H  0.54358982  0.62750104  0.59167851     0.15100
C2746       C  0.58634183  0.67996597  0.59322437    -0.23860
H2747       H  0.01573774  0.65672874  0.95958496     0.05310
H2748       H  0.98349228  0.64137321  0.48918556     0.08530
H2749       H  0.01512780  0.61422944  0.97552133     0.08530
H2750       H  0.58189389  0.70624492  0.59800159     0.08520
H2751       H  0.61297639  0.67718019  0.58846197     0.08520
H2752       H  0.57858784  0.66452331  0.61622854     0.05290
C2753       C  0.59333769  0.82787328  0.55008624    -0.20510
C2754       C  0.59112044  0.81042089  0.52106757    -0.07080
C2755       C  0.57418755  0.82406863  0.99426174     0.13790
C2756       C  0.55782840  0.85361107  0.49816345    -0.20560
C2757       C  0.55702168  0.86913623  0.52855374    -0.07080
C2758       C  0.57656443  0.85695770  0.55426973     0.13780
C2759       C  0.58024402  0.87450046  0.58618906    -0.23910
H2760       H  0.60705922  0.81777527  0.57029052     0.15070
H2761       H  0.54453462  0.86376973  0.97789893     0.15100
C2762       C  0.57340677  0.80757318  0.96159859    -0.23860
H2763       H  0.59926008  0.86358186  0.60153320     0.05310
H2764       H  0.55691863  0.87225769  0.60163115     0.08530
H2765       H  0.58773347  0.90112253  0.58039872     0.08530
H2766       H  0.56086013  0.78250516  0.96520335     0.08520
H2767       H  0.59887450  0.80525481  0.95133436     0.08520
H2768       H  0.56005652  0.82214229  0.94295396     0.05290
C2769       C  0.70898504  0.72969445  0.51907281    -0.20510
C2770       C  0.68395951  0.73766998  0.54199134    -0.07080
C2771       C  0.69087846  0.74041693  0.57581403     0.13790
C2772       C  0.72258555  0.73490476  0.58602873    -0.20560
C2773       C  0.74761106  0.72697305  0.56320381    -0.07080
C2774       C  0.74089288  0.72454611  0.52931002     0.13780
C2775       C  0.76734590  0.71632084  0.50415423    -0.23910
H2776       H  0.70350730  0.72745603  0.99319853     0.15070
H2777       H  0.72798274  0.73693382  0.61195844     0.15100
C2778       C  0.66469964  0.74891192  0.60120788    -0.23860
H2779       H  0.75799528  0.71510866  0.97879029     0.05310
H2780       H  0.77690112  0.69183383  0.51133388     0.08530
H2781       H  0.78775979  0.73567835  0.50318727     0.08530
H2782       H  0.64397291  0.72995114  0.60215434     0.08520
H2783       H  0.65556483  0.77366437  0.59438581     0.08520
H2784       H  0.67415738  0.74973308  0.62655302     0.05290
loop_ 
_geom_bond_atom_site_label_1 
_geom_bond_atom_site_label_2 
_geom_bond_distance 
_geom_bond_site_symmetry_2 
_ccdc_geom_bond_type 
C1            C6   1.406       .  A
C1          C350   1.407       .  A
C1          C666   1.485       .  S
C2            C3   1.404       .  A
C2          C349   1.407       .  A
C2            H7   1.084       .  S
C3            C4   1.402       .  A
C3          C334   1.482       .  S
C4          C353   1.405       .  A
C4            H8   1.084       .  S
C5            C6   1.404       .  A
C5          C352   1.405       .  A
C5          C650   1.487       .  S
C6            H9   1.084       .  S
C10          C11   1.407       .  A
C10          C15   1.409       .  A
C10         C270   1.491       .  S
C11          C12   1.396       .  A
C11          H16   1.084       .  S
C12          C13   1.397       .  A
C12         C337   1.482       .  S
C13          C14   1.417       .  A
C13          H17   1.083       .  S
C14          C15   1.406       .  A
C14         C289   1.512       .  S
C15          H18   1.071       .  S
C19          C20   1.409       .  A
C19          C24   1.403       .  A
C19         C222   1.487       .  S
C20          C21   1.411       .  A
C20          H25   1.083       .  S
C21          C22   1.407       .  A
C21         C254   1.490       .  S
C22          C23   1.401       .  A
C22          H26   1.084       .  S
C23          C24   1.398       .  A
C23         C238   1.479       .  S
C24          H27   1.084       .  S
C28          C29   1.398       .  A
C28          C33   1.406       .  A
C28         C206   1.479       .  S
C29          C30   1.397       .  A
C29          H34   1.085       .  S
C30          C31   1.405       .  A
C30         C193   1.479       .  S
C31          C32   1.406       .  A
C31          H35   1.084       .  S
C32          C33   1.409       .  A
C32         C257   1.489   1_545  S
C33          H36   1.083       .  S
C37          C38   1.401       .  A
C37          C42   1.401       .  A
C37         C145   1.469       .  S
C38          C39   1.400       .  A
C38          H43   1.084   1_455  S
C39          C40   1.399       .  A
C39        C1569   1.480   1_455  S
C40          C41   1.409       .  A
C40          H44   1.084       .  S
C41          C42   1.401       .  A
C41         C158   1.487       .  S
C42          H45   1.084       .  S
C46          C47   1.407       .  A
C46          C51   1.402       .  A
C46         C126   1.478       .  S
C47          C48   1.402       .  A
C47          H52   1.084       .  S
C48          C49   1.398       .  A
C48         C174   1.478       .  S
C49          C50   1.402       .  A
C49          H53   1.083       .  S
C50          C51   1.400       .  A
C50         C113   1.483       .  S
C51          H54   1.084       .  S
O55          C66   1.299       .  A
O55       Eu1483   2.506   1_455  S
O56          C67   1.293       .  A
O56         Eu90   2.477       .  S
O57          C68   1.295       .  A
O57       Eu1455   2.493   1_455  S
O58          C69   1.302       .  A
O58         Eu63   2.524       .  S
O59          C69   1.277       .  A
O59         Eu93   2.388       .  S
O60          C68   1.287       .  A
O60        Eu788   2.422       .  S
O61          C67   1.287       .  A
O61         Eu63   2.426       .  S
O62          C66   1.286       .  A
O62       Eu1455   2.429   1_455  S
Eu63       O1449   2.493       .  S
Eu63       O1454   2.429       .  S
Eu63         O73   2.350       .  S
Eu63         O64   2.340       .  S
Eu63         O71   2.365       .  S
Eu63       O1457   2.361       .  S
O64         Eu93   2.343       .  S
O64         Eu90   2.348       .  S
O65       Eu1455   2.361   1_455  S
O65       Eu1483   2.349   1_455  S
O65        Eu788   2.348       .  S
C66         C321   1.490       .  S
C67         C110   1.486       .  S
C68         C225   1.492       .  S
C69         C286   1.492       .  S
H70          O71   0.966       .  S
O71         Eu90   2.342       .  S
O71       Eu2180   2.352       .  S
H72          O73   0.966       .  S
O73         Eu91   2.356       .  S
O73         Eu93   2.358       .  S
O74          C97   1.291       .  A
O74        Eu786   2.465   1_545  S
O75         C794   1.297       .  A
O75        Eu439   2.493       .  S
O76        C1491   1.287   1_455  A
O76         Eu92   2.449       .  S
O77         C100   1.299       .  A
O77         Eu93   2.512       .  S
O78         C449   1.294       .  A
O78         Eu93   2.479   1_556  S
O79         C798   1.292       .  A
O79         Eu92   2.472       .  S
O80        C1495   1.298       .  A
O80         Eu94   2.500       .  S
O81         C104   1.299   1_554  A
O81         Eu94   2.511       .  S
O82         C103   1.288       .  A
O82         Eu92   2.433       .  S
O83         C800   1.286   1_554  A
O83         Eu93   2.421       .  S
O84          C99   1.289       .  A
O84        Eu786   2.441   1_545  S
O85         C102   1.285   1_556  A
O85       Eu1483   2.427   1_456  S
O86         C101   1.286       .  A
O86        Eu439   2.431       .  S
O87         C100   1.282       .  A
O87         Eu90   2.408       .  S
O88          C97   1.290       .  A
O88         Eu94   2.447       .  S
O89          C98   1.284       .  A
O89        Eu442   2.426       .  S
Eu90        O770   2.465       .  S
Eu90        O780   2.441       .  S
Eu90        O108   2.363       .  S
Eu90        O792   2.350       .  S
Eu91       O1447   2.506       .  S
Eu91        O423   2.493   1_554  S
Eu91       O1477   2.427   1_554  S
Eu91        O434   2.431   1_554  S
Eu91         O95   2.367       .  S
Eu91       O1457   2.349       .  S
Eu91        O802   2.344       .  S
Eu92        O756   2.422   1_545  S
Eu92        O761   2.348   1_545  S
Eu92       O2159   2.352   1_445  S
Eu92       O1498   2.327   1_455  S
Eu92       O1488   2.349   1_455  S
Eu93         O95   2.352       .  S
Eu93        O108   2.340       .  S
Eu94        O437   2.426   1_554  S
Eu94        O106   2.347       .  S
Eu94         O96   2.359       .  S
Eu94        O791   2.361   1_545  S
Eu94        O804   2.351       .  S
O95        Eu790   2.361       .  S
O96        Eu786   2.350   1_545  S
O96       Eu1484   2.349       .  S
C97         C273   1.472       .  S
C98         C161   1.497       .  S
C98         O771   1.297       .  A
C99         C142   1.492       .  S
C99        O1468   1.287       .  A
C100        C241   1.473       .  S
C101        C129   1.484       .  S
C101        O426   1.294       .  A
C102       C1234   1.463   1_554  S
C102        O775   1.292       .  A
C103        C305   1.492       .  S
C103       O1472   1.298   1_455  A
C104        C557   1.503       .  S
C104        O779   1.286   1_546  A
H105       O1498   0.964   1_455  S
O106       Eu787   2.344   1_545  S
O106      Eu1484   2.327       .  S
O106       H1497   0.964       .  S
H107        O804   0.966       .  S
O108       Eu790   2.351       .  S
O108        H803   0.966       .  S
C109        C110   1.404       .  A
C109        C114   1.394       .  A
C109        H116   1.082       .  S
C110        C111   1.416       .  A
C111        C112   1.409       .  A
C111        C118   1.506       .  S
C112        C113   1.407       .  A
C112        H117   1.084       .  S
C113        C114   1.415       .  A
C114        C115   1.513       .  S
C115        H119   1.111       .  S
C115        H120   1.107       .  S
C115        H121   1.110       .  S
C118        H122   1.108       .  S
C118        H123   1.110       .  S
C118        H124   1.111       .  S
C125        C126   1.396       .  A
C125        C130   1.396       .  A
C125        H132   1.085       .  S
C126        C127   1.414       .  A
C127        C128   1.408       .  A
C127        C134   1.506       .  S
C128        C129   1.405       .  A
C128        H133   1.084       .  S
C129        C130   1.421       .  A
C130        C131   1.506       .  S
C131        H136   1.110       .  S
C131        H137   1.109       .  S
C131       H1527   1.111       .  S
C134        H138   1.110       .  S
C134        H139   1.109       .  S
C134        H140   1.111       .  S
H135       C1523   1.111   1_455  S
C141        C142   1.410       .  A
C141        C146   1.397       .  A
C141        H148   1.083       .  S
C142       C1535   1.425       .  A
C143        C144   1.405       .  A
C143       C1534   1.425   1_455  A
C143        C150   1.509       .  S
C144        C145   1.398       .  A
C144        H149   1.084       .  S
C145       C1538   1.407   1_455  A
C146       C1537   1.407       .  A
C146        C147   1.509       .  S
C147        H151   1.111       .  S
C147        H152   1.110       .  S
C147        H153   1.110       .  S
C150        H154   1.110       .  S
C150        H155   1.110       .  S
C150        H156   1.111       .  S
C157        C162   1.390       .  A
C157       C1550   1.397       .  A
C157        H164   1.084       .  S
C158        C159   1.417       .  A
C158       C1549   1.397   1_455  A
C159        C160   1.412       .  A
C159        C166   1.506       .  S
C160       C1553   1.410   1_455  A
C160        H165   1.084       .  S
C161        C162   1.425       .  A
C161       C1552   1.410       .  A
C162        C163   1.506       .  S
C163        H167   1.111       .  S
C163        H168   1.105       .  S
C163        H169   1.095       .  S
C166        H170   1.108       .  S
C166        H171   1.110       .  S
C166        H172   1.110       .  S
C173        C174   1.405       .  A
C173       C1570   1.405       .  A
C173       H1572   1.084       .  S
C174        C175   1.409       .  A
C175        C176   1.404       .  A
C175        C182   1.506       .  S
C176        C177   1.406       .  A
C176        H181   1.084       .  S
C177       C1570   1.410       .  A
C177       C1431   1.480       .  S
C178       C1565   1.405   1_455  A
C178       C1569   1.410   1_455  A
C178        C179   1.506       .  S
C179        H183   1.111       .  S
C179        H184   1.110       .  S
C179        H185   1.109       .  S
H180       C1565   1.084       .  S
C182        H186   1.110       .  S
C182        H187   1.110       .  S
C182        H188   1.111       .  S
C189        C190   1.404       .  A
C189        C194   1.405       .  A
C189        H196   1.085       .  S
C190       C1235   1.406   1_545  A
C190       C1146   1.463       .  S
C191       C1234   1.406   1_554  A
C191       C1236   1.399   1_554  A
C191        C198   1.508       .  S
C192        C193   1.406       .  A
C192       C1235   1.399   1_545  A
C192        H893   1.082   1_545  S
C193        C194   1.412       .  A
C194        C195   1.506       .  S
C195        H199   1.111       .  S
C195        H200   1.108       .  S
C195        H201   1.110       .  S
H197        C888   1.082       .  S
C198        H202   1.111       .  S
C198        H203   1.110       .  S
C198        H204   1.111       .  S
C205        C206   1.399       .  A
C205        C210   1.410       .  A
C205        H212   1.084       .  S
C206        C207   1.410   1_545  A
C207        C904   1.397       .  A
C207        C910   1.509       .  S
C208        C903   1.397       .  A
C208        C905   1.410       .  A
C208        H561   1.083       .  S
C209        C210   1.420       .  A
C209        C904   1.410   1_545  A
C209        C452   1.503       .  S
C210        C211   1.493       .  S
C211        H215   1.111       .  S
C211        H216   1.107       .  S
C211        H217   1.109       .  S
H213        C556   1.083   1_554  S
C214        C903   1.509       .  S
C214        H218   1.110       .  S
C214        H219   1.106       .  S
C214        H220   1.111       .  S
C221        C222   1.407       .  A
C221        C226   1.415       .  A
C221        H228   1.084       .  S
C222        C223   1.413       .  A
C223        C224   1.392       .  A
C223        C230   1.506       .  S
C224        C225   1.404       .  A
C224        H229   1.084       .  S
C225        C226   1.418       .  A
C226        C227   1.503       .  S
C227        H231   1.111       .  S
C227        H232   1.110       .  S
C227        H233   1.109       .  S
C230        H234   1.107       .  S
C230        H931   1.110       .  S
C230        H932   1.111       .  S
H235        C926   1.110   1_545  S
H236        C926   1.111   1_545  S
C237        C238   1.401       .  A
C237        C242   1.407       .  A
C237        H244   1.084       .  S
C238        C239   1.412       .  A
C239        C240   1.400       .  A
C239        C942   1.506       .  S
C240        C241   1.401       .  A
C240        H941   1.085       .  S
C241        C242   1.419       .  A
C242        C243   1.506       .  S
C243        H247   1.110       .  S
C243        H248   1.108       .  S
C243        H249   1.110       .  S
H245        C936   1.085   1_545  S
C246        C935   1.506   1_545  S
C246        H251   1.101       .  S
C246        H252   1.111       .  S
C246        H946   1.110       .  S
H250        C942   1.110       .  S
C253        C258   1.407       .  A
C253        C950   1.406   1_545  A
C253        H260   1.084       .  S
C254        C255   1.415       .  A
C254        C949   1.406       .  A
C255        C256   1.408       .  A
C255        C262   1.507       .  S
C256        C953   1.405       .  A
C256        H261   1.084       .  S
C257        C258   1.413   1_565  A
C257        C952   1.405       .  A
C258        C259   1.507       .  S
C259        H263   1.111       .  S
C259        H264   1.109       .  S
C259        H265   1.110       .  S
C262        H266   1.110       .  S
C262        H267   1.109       .  S
C262        H268   1.111       .  S
C269        C270   1.406       .  A
C269        C274   1.396       .  A
C269        H276   1.083       .  S
C270        C271   1.420       .  A
C271        C272   1.406       .  A
C271        C278   1.506       .  S
C272        C273   1.402       .  A
C272        H277   1.084       .  S
C273        C274   1.412       .  A
C274        C275   1.510       .  S
C275        H279   1.111       .  S
C275        H280   1.111       .  S
C275        H281   1.108       .  S
C278        H282   1.109       .  S
C278        H283   1.111       .  S
C278        H284   1.110       .  S
C285        C286   1.402       .  A
C285        C290   1.415       .  A
C285        H292   1.084       .  S
C286        C287   1.423       .  A
C287        C288   1.392       .  A
C287        C294   1.513       .  S
C288        C289   1.403       .  A
C288        H293   1.082       .  S
C289        C290   1.432       .  A
C290        C291   1.507       .  S
C291        H295   1.111       .  S
C291        H296   1.110       .  S
C291        H297   1.108       .  S
C294        H298   1.098       .  S
C294        H299   1.110       .  S
C294        H300   1.111       .  S
C301        C650   1.404       .  A
C301        C654   1.410       .  A
C301        H308   1.084       .  S
C302        C303   1.414       .  A
C302        C649   1.404       .  A
C302        C353   1.487       .  S
C303        C304   1.401       .  A
C303        C310   1.509       .  S
C304        C305   1.406       .  A
C304        H309   1.084       .  S
C305        C306   1.417       .  A
C306        C649   1.410       .  A
C306       C2047   1.502   1_554  S
C307       C2046   1.502       .  S
C307        H311   1.111       .  S
C307        H313   1.110       .  S
C307        H660   1.109       .  S
C310        H314   1.110       .  S
C310        H315   1.108       .  S
C310        H316   1.111       .  S
H312        C655   1.109       .  S
C317        C318   1.400       .  A
C317        C322   1.403       .  A
C317        H324   1.084       .  S
C318        C667   1.413   1_554  A
C318        C349   1.485       .  S
C319        C666   1.413       .  A
C319        C668   1.409       .  A
C319        C326   1.506       .  S
C320        C321   1.404   1_556  A
C320        C667   1.409       .  A
C320        H673   1.077       .  S
C321        C322   1.421       .  A
C322        C323   1.510       .  S
C323        H327   1.111       .  S
C323        H328   1.108       .  S
C323        H329   1.111       .  S
H325        C668   1.077       .  S
C326        H330   1.109       .  S
C326        H331   1.110       .  S
C326        H332   1.111       .  S
C333        C334   1.404       .  A
C333        C338   1.409       .  A
C333        H688   1.084   1_554  S
C334        C335   1.413       .  A
C335        C336   1.404       .  A
C335        C342   1.507       .  S
C336        C337   1.401       .  A
C336        H341   1.084       .  S
C337        C338   1.413       .  A
C338        C339   1.505       .  S
C339        H344   1.110       .  S
C339        H345   1.110       .  S
C339        H691   1.111   1_554  S
H340        C681   1.084       .  S
C342        H346   1.109       .  S
C342        H347   1.110       .  S
C342        H348   1.111       .  S
H343        C687   1.111       .  S
C349        C354   1.406       .  A
C350        C351   1.404       .  A
C350        H355   1.084       .  S
C351        C352   1.402       .  A
C351        C682   1.482       .  S
C352        H356   1.084       .  S
C353        C354   1.404       .  A
C354        H357   1.084       .  S
C358        C359   1.407       .  A
C358        C363   1.409       .  A
C358        C618   1.491       .  S
C359        C360   1.396       .  A
C359        H364   1.084       .  S
C360        C361   1.397       .  A
C360        C685   1.482       .  S
C361        C362   1.417       .  A
C361        H365   1.083       .  S
C362        C363   1.406       .  A
C362        C637   1.512       .  S
C363        H366   1.071       .  S
C367        C368   1.409       .  A
C367        C372   1.403       .  A
C367        C570   1.487       .  S
C368        C369   1.411       .  A
C368        H373   1.083       .  S
C369        C370   1.407       .  A
C369        C602   1.490       .  S
C370        C371   1.401       .  A
C370        H374   1.084       .  S
C371        C372   1.398       .  A
C371        C586   1.479       .  S
C372        H375   1.084       .  S
C376        C377   1.398       .  A
C376        C381   1.406       .  A
C376        C554   1.479       .  S
C377        C378   1.397       .  A
C377        H382   1.085       .  S
C378        C379   1.405       .  A
C378        C541   1.479       .  S
C379        C380   1.406       .  A
C379        H383   1.084       .  S
C380        C381   1.409       .  A
C380        C605   1.489   1_545  S
C381        H384   1.083       .  S
C385        C386   1.401       .  A
C385        C390   1.401       .  A
C385        C493   1.469       .  S
C386        C387   1.400       .  A
C386        H391   1.084   1_455  S
C387        C388   1.399       .  A
C387       C1917   1.480   1_455  S
C388        C389   1.409       .  A
C388        H392   1.084       .  S
C389        C390   1.401       .  A
C389        C506   1.487       .  S
C390        H393   1.084       .  S
C394        C395   1.407       .  A
C394        C399   1.402       .  A
C394        C474   1.478       .  S
C395        C396   1.402       .  A
C395        H400   1.084       .  S
C396        C397   1.398       .  A
C396        C522   1.478       .  S
C397        C398   1.402       .  A
C397        H401   1.083       .  S
C398        C399   1.400       .  A
C398        C461   1.483       .  S
C399        H402   1.084       .  S
O403        C414   1.299       .  A
O403      Eu1831   2.506   1_455  S
O404        C415   1.293       .  A
O404       Eu438   2.477       .  S
O405        C416   1.295       .  A
O405      Eu1803   2.493   1_455  S
O406        C417   1.302       .  A
O406       Eu411   2.524       .  S
O407        C417   1.277       .  A
O407       Eu441   2.388       .  S
O408        C416   1.287       .  A
O408      Eu1136   2.422       .  S
O409        C415   1.287       .  A
O409       Eu411   2.426       .  S
O410        C414   1.286       .  A
O410      Eu1803   2.429   1_455  S
Eu411      O1797   2.493       .  S
Eu411      O1802   2.429       .  S
Eu411       O421   2.350       .  S
Eu411      O1805   2.361       .  S
Eu411       O412   2.340       .  S
Eu411       O419   2.365       .  S
O412       Eu441   2.343       .  S
O412       Eu438   2.348       .  S
O413      Eu1803   2.361   1_455  S
O413      Eu1831   2.349   1_455  S
O413      Eu1136   2.348       .  S
C414        C669   1.490       .  S
C415        C458   1.486       .  S
C416        C573   1.492       .  S
C417        C634   1.492       .  S
H418        O419   0.966       .  S
O419      Eu2528   2.352       .  S
O419       Eu438   2.342       .  S
H420        O421   0.966       .  S
O421       Eu439   2.356       .  S
O421       Eu441   2.358       .  S
O422        C445   1.291       .  A
O422      Eu1134   2.465   1_545  S
O423       C1142   1.297       .  A
O424       C1839   1.287   1_455  A
O424       Eu440   2.449       .  S
O425        C448   1.299       .  A
O425       Eu441   2.512       .  S
O426       Eu441   2.479       .  S
O427       C1146   1.292       .  A
O427       Eu440   2.472       .  S
O428       C1843   1.298       .  A
O428       Eu442   2.500       .  S
O429        C452   1.299       .  A
O429       Eu442   2.511       .  S
O430        C451   1.288       .  A
O430       Eu440   2.433       .  S
O431       C1148   1.286       .  A
O431       Eu441   2.421       .  S
O432        C447   1.289       .  A
O432      Eu1134   2.441   1_545  S
O433        C450   1.285       .  A
O433      Eu1831   2.427   1_455  S
O434        C449   1.286       .  A
O435        C448   1.282       .  A
O435       Eu438   2.408       .  S
O436        C445   1.290       .  A
O436       Eu442   2.447       .  S
O437        C446   1.284       .  A
Eu438      O1118   2.465       .  S
Eu438      O1128   2.441       .  S
Eu438       O456   2.363       .  S
Eu438      O1140   2.350       .  S
Eu439      O1795   2.506       .  S
Eu439      O1825   2.427       .  S
Eu439      O1805   2.349       .  S
Eu439       O443   2.367       .  S
Eu439      O1150   2.344       .  S
Eu440      O1104   2.422   1_545  S
Eu440      O1109   2.348   1_545  S
Eu440      O2507   2.352   1_445  S
Eu440      O1846   2.327   1_455  S
Eu440      O1836   2.349   1_455  S
Eu441       O443   2.352       .  S
Eu441       O456   2.340       .  S
Eu442      O1139   2.361   1_545  S
Eu442       O454   2.347       .  S
Eu442      O1152   2.351       .  S
Eu442       O444   2.359       .  S
O443      Eu1138   2.361       .  S
O444      Eu1134   2.350   1_545  S
O444      Eu1832   2.349       .  S
C445        C621   1.472       .  S
C446        C509   1.497       .  S
C446       O1119   1.297       .  A
C447        C490   1.492       .  S
C447       O1816   1.287       .  A
C448        C589   1.473       .  S
C449        C477   1.484       .  S
C450        C886   1.463       .  S
C450       O1123   1.292       .  A
C451        C653   1.492       .  S
C451       O1820   1.298   1_455  A
C452       O1127   1.286   1_545  A
H453       O1846   0.964   1_455  S
O454      Eu1135   2.344   1_545  S
O454      Eu1832   2.327       .  S
O454       H1845   0.964       .  S
H455       O1152   0.966       .  S
O456      Eu1138   2.351       .  S
O456       H1151   0.966       .  S
C457        C458   1.404       .  A
C457        C462   1.394       .  A
C457        H464   1.082       .  S
C458        C459   1.416       .  A
C459        C460   1.409       .  A
C459        C466   1.506       .  S
C460        C461   1.407       .  A
C460        H465   1.084       .  S
C461        C462   1.415       .  A
C462        C463   1.513       .  S
C463        H467   1.111       .  S
C463        H468   1.107       .  S
C463        H469   1.110       .  S
C466        H470   1.108       .  S
C466        H471   1.110       .  S
C466        H472   1.111       .  S
C473        C474   1.396       .  A
C473        C478   1.396       .  A
C473        H480   1.085       .  S
C474        C475   1.414       .  A
C475        C476   1.408       .  A
C475        C482   1.506       .  S
C476        C477   1.405       .  A
C476        H481   1.084       .  S
C477        C478   1.421       .  A
C478        C479   1.506       .  S
C479       H1875   1.111       .  S
C479        H484   1.110       .  S
C479        H485   1.109       .  S
C482        H486   1.110       .  S
C482        H487   1.109       .  S
C482        H488   1.111       .  S
H483       C1871   1.111   1_455  S
C489        C490   1.410       .  A
C489        C494   1.397       .  A
C489        H496   1.083       .  S
C490       C1883   1.425       .  A
C491       C1882   1.425   1_455  A
C491        C492   1.405       .  A
C491        C498   1.509       .  S
C492        C493   1.398       .  A
C492        H497   1.084       .  S
C493       C1886   1.407   1_455  A
C494       C1885   1.407       .  A
C494        C495   1.509       .  S
C495        H499   1.111       .  S
C495        H500   1.110       .  S
C495        H501   1.110       .  S
C498        H502   1.110       .  S
C498        H503   1.110       .  S
C498        H504   1.111       .  S
C505       C1898   1.397       .  A
C505        C510   1.390       .  A
C505        H512   1.084       .  S
C506       C1897   1.397   1_455  A
C506        C507   1.417       .  A
C507        C508   1.412       .  A
C507        C514   1.506       .  S
C508       C1901   1.410   1_455  A
C508        H513   1.084       .  S
C509       C1900   1.410       .  A
C509        C510   1.425       .  A
C510        C511   1.506       .  S
C511        H515   1.111       .  S
C511        H516   1.105       .  S
C511        H517   1.095       .  S
C514        H518   1.108       .  S
C514        H519   1.110       .  S
C514        H520   1.110       .  S
C521        C522   1.405       .  A
C521       C1918   1.405       .  A
C521       H1920   1.084       .  S
C522        C523   1.409       .  A
C523        C524   1.404       .  A
C523        C530   1.506       .  S
C524        C525   1.406       .  A
C524        H529   1.084       .  S
C525       C1918   1.410       .  A
C525       C1779   1.480       .  S
C526       C1913   1.405   1_455  A
C526       C1917   1.410   1_455  A
C526        C527   1.506       .  S
C527        H531   1.111       .  S
C527        H532   1.110       .  S
C527        H533   1.109       .  S
H528       C1913   1.084       .  S
C530        H534   1.110       .  S
C530        H535   1.110       .  S
C530        H536   1.111       .  S
C537        C538   1.404       .  A
C537        C542   1.405       .  A
C537        H544   1.085       .  S
C538        C887   1.406   1_546  A
C538        C798   1.463   1_556  S
C539        C886   1.406       .  A
C539        C888   1.399       .  A
C539        C546   1.508       .  S
C540        C887   1.399   1_546  A
C540        C541   1.406       .  A
C540       H1241   1.082   1_545  S
C541        C542   1.412       .  A
C542        C543   1.506       .  S
C543        H547   1.111       .  S
C543        H548   1.108       .  S
C543        H549   1.110       .  S
H545       C1236   1.082       .  S
C546        H550   1.111       .  S
C546        H551   1.110       .  S
C546        H552   1.111       .  S
C553        C554   1.399       .  A
C553        C558   1.410       .  A
C553        H560   1.084       .  S
C554        C555   1.410   1_545  A
C555       C1252   1.397       .  A
C555       C1258   1.509       .  S
C556       C1251   1.397       .  A
C556       C1253   1.410       .  A
C557       C1252   1.410   1_545  A
C557        C558   1.420       .  A
C558        C559   1.493       .  S
C559        H563   1.111       .  S
C559        H564   1.107       .  S
C559        H565   1.109       .  S
C562       C1251   1.509       .  S
C562        H566   1.110       .  S
C562        H567   1.106       .  S
C562        H568   1.111       .  S
C569        C570   1.407       .  A
C569        C574   1.415       .  A
C569        H576   1.084       .  S
C570        C571   1.413       .  A
C571        C572   1.392       .  A
C571        C578   1.506       .  S
C572        C573   1.404       .  A
C572        H577   1.084       .  S
C573        C574   1.418       .  A
C574        C575   1.503       .  S
C575        H579   1.111       .  S
C575        H580   1.110       .  S
C575        H581   1.109       .  S
C578        H582   1.107       .  S
C578       H1279   1.110       .  S
C578       H1280   1.111       .  S
H583       C1274   1.110   1_545  S
H584       C1274   1.111   1_545  S
C585        C586   1.401       .  A
C585        C590   1.407       .  A
C585        H592   1.084       .  S
C586        C587   1.412       .  A
C587        C588   1.400       .  A
C587       C1290   1.506       .  S
C588        C589   1.401       .  A
C588       H1289   1.085       .  S
C589        C590   1.419       .  A
C590        C591   1.506       .  S
C591        H595   1.110       .  S
C591        H596   1.108       .  S
C591        H597   1.110       .  S
H593       C1284   1.085   1_545  S
C594       C1283   1.506   1_545  S
C594       H1294   1.110       .  S
C594        H599   1.101       .  S
C594        H600   1.111       .  S
H598       C1290   1.110       .  S
C601       C1298   1.406   1_545  A
C601        C606   1.407       .  A
C601        H608   1.084       .  S
C602       C1297   1.406       .  A
C602        C603   1.415       .  A
C603        C604   1.408       .  A
C603        C610   1.507       .  S
C604       C1301   1.405       .  A
C604        H609   1.084       .  S
C605       C1300   1.405       .  A
C605        C606   1.413   1_565  A
C606        C607   1.507       .  S
C607        H611   1.111       .  S
C607        H612   1.109       .  S
C607        H613   1.110       .  S
C610        H614   1.110       .  S
C610        H615   1.109       .  S
C610        H616   1.111       .  S
C617        C618   1.406       .  A
C617        C622   1.396       .  A
C617        H624   1.083       .  S
C618        C619   1.420       .  A
C619        C620   1.406       .  A
C619        C626   1.506       .  S
C620        C621   1.402       .  A
C620        H625   1.084       .  S
C621        C622   1.412       .  A
C622        C623   1.510       .  S
C623        H627   1.111       .  S
C623        H628   1.111       .  S
C623        H629   1.108       .  S
C626        H630   1.109       .  S
C626        H631   1.111       .  S
C626        H632   1.111       .  S
C633        C634   1.402       .  A
C633        C638   1.415       .  A
C633        H640   1.084       .  S
C634        C635   1.423       .  A
C635        C636   1.392       .  A
C635        C642   1.513       .  S
C636        C637   1.403       .  A
C636        H641   1.082       .  S
C637        C638   1.432       .  A
C638        C639   1.507       .  S
C639        H643   1.111       .  S
C639        H644   1.110       .  S
C639        H645   1.108       .  S
C642        H646   1.098       .  S
C642        H647   1.110       .  S
C642        H648   1.111       .  S
C649        H656   1.084   1_554  S
C650        C651   1.414       .  A
C651        C652   1.401       .  A
C651        C658   1.509       .  S
C652        C653   1.406       .  A
C652        H657   1.084       .  S
C653        C654   1.417       .  A
C654       C1699   1.502       .  S
C655       C1698   1.502   1_556  S
C655        H659   1.111       .  S
C655        H661   1.110       .  S
C658        H662   1.110       .  S
C658        H663   1.108       .  S
C658        H664   1.111       .  S
C665        C666   1.400       .  A
C665        C670   1.403       .  A
C665        H672   1.084       .  S
C667        C674   1.506       .  S
C668        C669   1.404       .  A
C669        C670   1.421       .  A
C670        C671   1.510       .  S
C671        H675   1.111       .  S
C671        H676   1.108       .  S
C671        H677   1.111       .  S
C674        H678   1.109       .  S
C674        H679   1.110       .  S
C674        H680   1.111       .  S
C681        C682   1.404       .  A
C681        C686   1.409       .  A
C682        C683   1.413       .  A
C683        C684   1.404       .  A
C683        C690   1.507       .  S
C684        C685   1.401       .  A
C684        H689   1.084       .  S
C685        C686   1.413       .  A
C686        C687   1.505       .  S
C687        H692   1.110       .  S
C687        H693   1.110       .  S
C690        H694   1.109       .  S
C690        H695   1.110       .  S
C690        H696   1.111       .  S
C697       C1046   1.407       .  A
C697        C702   1.406       .  A
C697       C1362   1.485       .  S
C698       C1045   1.407       .  A
C698        C699   1.404       .  A
C698        H703   1.084       .  S
C699        C700   1.402       .  A
C699       C1030   1.482       .  S
C700       C1049   1.405       .  A
C700        H704   1.084       .  S
C701       C1048   1.405       .  A
C701        C702   1.404       .  A
C701       C1346   1.487       .  S
C702        H705   1.084       .  S
C706        C707   1.407       .  A
C706        C711   1.409       .  A
C706        C966   1.491       .  S
C707        C708   1.396       .  A
C707        H712   1.084       .  S
C708        C709   1.397       .  A
C708       C1033   1.482       .  S
C709        C710   1.417       .  A
C709        H713   1.083       .  S
C710        C711   1.406       .  A
C710        C985   1.512       .  S
C711        H714   1.071       .  S
C715        C716   1.409       .  A
C715        C720   1.403       .  A
C715        C918   1.487       .  S
C716        C717   1.411       .  A
C716        H721   1.083       .  S
C717        C718   1.407       .  A
C717        C950   1.490       .  S
C718        C719   1.401       .  A
C718        H722   1.084       .  S
C719        C720   1.398       .  A
C719        C934   1.479       .  S
C720        H723   1.084       .  S
C724        C725   1.398       .  A
C724        C729   1.406       .  A
C724        C902   1.479       .  S
C725        C726   1.397       .  A
C725        H730   1.085       .  S
C726        C727   1.405       .  A
C726        C889   1.479       .  S
C727        C728   1.406       .  A
C727        H731   1.084       .  S
C728        C729   1.409       .  A
C728        C953   1.489       .  S
C729        H732   1.083       .  S
C733        C734   1.401       .  A
C733        C738   1.401       .  A
C733        C841   1.469       .  S
C734        C735   1.400       .  A
C734        H739   1.084   1_455  S
C735        C736   1.399       .  A
C735       C2265   1.480   1_455  S
C736        C737   1.409       .  A
C736        H740   1.084       .  S
C737        C738   1.401       .  A
C737        C854   1.487       .  S
C738        H741   1.084       .  S
C742        C743   1.407       .  A
C742        C747   1.402       .  A
C742        C822   1.478       .  S
C743        C744   1.402       .  A
C743        H748   1.084       .  S
C744        C745   1.398       .  A
C744        C870   1.478       .  S
C745        C746   1.402       .  A
C745        H749   1.083       .  S
C746        C747   1.400       .  A
C746        C809   1.483       .  S
C747        H750   1.084       .  S
O751        C762   1.299       .  A
O751      Eu2179   2.506   1_455  S
O752        C763   1.293       .  A
O752       Eu786   2.477       .  S
O753        C764   1.295       .  A
O753      Eu2151   2.493   1_455  S
O754        C765   1.302       .  A
O754       Eu759   2.524       .  S
O755        C765   1.277       .  A
O755       Eu789   2.388       .  S
O756        C764   1.287       .  A
O757        C763   1.287       .  A
O757       Eu759   2.426       .  S
O758        C762   1.286       .  A
O758      Eu2151   2.429   1_455  S
Eu759      O2145   2.493       .  S
Eu759      O2150   2.429       .  S
Eu759       O769   2.350       .  S
Eu759      O2153   2.361       .  S
Eu759       O760   2.340       .  S
Eu759       O767   2.365       .  S
O760       Eu789   2.343       .  S
O760       Eu786   2.348       .  S
O761      Eu2151   2.361   1_455  S
O761      Eu2179   2.349   1_455  S
C762       C1017   1.490       .  S
C763        C806   1.486       .  S
C764        C921   1.492       .  S
C765        C982   1.492       .  S
H766        O767   0.966       .  S
O767      Eu1484   2.352   1_565  S
O767       Eu786   2.342       .  S
H768        O769   0.966       .  S
O769       Eu787   2.356       .  S
O769       Eu789   2.358       .  S
O770        C793   1.291       .  A
O771      Eu1135   2.493   1_545  S
O772       C2187   1.287   1_455  A
O772       Eu788   2.449       .  S
O773        C796   1.299       .  A
O773       Eu789   2.512       .  S
O774       C1145   1.294       .  A
O774       Eu789   2.479   1_556  S
O775       Eu788   2.472       .  S
O776       C2191   1.298       .  A
O776       Eu790   2.500       .  S
O777        C800   1.299   1_554  A
O777       Eu790   2.511       .  S
O778        C799   1.288       .  A
O778       Eu788   2.433       .  S
O779       Eu789   2.421       .  S
O780        C795   1.289       .  A
O781        C798   1.285   1_566  A
O781      Eu2179   2.427   1_456  S
O782        C797   1.286       .  A
O782      Eu1135   2.431       .  S
O783        C796   1.282       .  A
O783       Eu786   2.408       .  S
O784        C793   1.290       .  A
O784       Eu790   2.447       .  S
O785        C794   1.284       .  A
O785      Eu1138   2.426       .  S
Eu786       O804   2.363   1_565  S
Eu787      O2143   2.506       .  S
Eu787      O1119   2.493   1_564  S
Eu787      O2173   2.427   1_554  S
Eu787      O1130   2.431   1_554  S
Eu787      O2153   2.349       .  S
Eu787       O791   2.367       .  S
Eu788      O1463   2.352   1_455  S
Eu788      O2194   2.327   1_455  S
Eu788      O2184   2.349   1_455  S
Eu789       O791   2.352       .  S
Eu789       O804   2.340   1_565  S
Eu790      O1133   2.426   1_554  S
Eu790       O802   2.347       .  S
Eu790       O792   2.359       .  S
O792      Eu2180   2.349       .  S
C793        C969   1.472       .  S
C794        C857   1.497       .  S
C795        C838   1.492       .  S
C795       O2164   1.287       .  A
C796        C937   1.473       .  S
C797        C825   1.484       .  S
C797       O1122   1.294       .  A
C799       C1001   1.492       .  S
C799       O2168   1.298   1_455  A
C800       C1253   1.503       .  S
H801       O2194   0.964   1_455  S
O802      Eu2180   2.327       .  S
O802       H2193   0.964       .  S
C805        C806   1.404       .  A
C805        C810   1.394       .  A
C805        H812   1.082       .  S
C806        C807   1.416       .  A
C807        C808   1.409       .  A
C807        C814   1.506       .  S
C808        C809   1.407       .  A
C808        H813   1.084       .  S
C809        C810   1.415       .  A
C810        C811   1.513       .  S
C811        H815   1.111       .  S
C811        H816   1.107       .  S
C811        H817   1.110       .  S
C814        H818   1.108       .  S
C814        H819   1.110       .  S
C814        H820   1.111       .  S
C821        C822   1.396       .  A
C821        C826   1.396       .  A
C821        H828   1.085       .  S
C822        C823   1.414       .  A
C823        C824   1.408       .  A
C823        C830   1.506       .  S
C824        C825   1.405       .  A
C824        H829   1.084       .  S
C825        C826   1.421       .  A
C826        C827   1.506       .  S
C827       H2223   1.111       .  S
C827        H832   1.110       .  S
C827        H833   1.109       .  S
C830        H834   1.110       .  S
C830        H835   1.109       .  S
C830        H836   1.111       .  S
H831       C2219   1.111   1_455  S
C837        C838   1.410       .  A
C837        C842   1.397       .  A
C837        H844   1.083       .  S
C838       C2231   1.425       .  A
C839       C2230   1.425   1_455  A
C839        C840   1.405       .  A
C839        C846   1.509       .  S
C840        C841   1.398       .  A
C840        H845   1.084       .  S
C841       C2234   1.407   1_455  A
C842       C2233   1.407       .  A
C842        C843   1.509       .  S
C843        H847   1.111       .  S
C843        H848   1.110       .  S
C843        H849   1.110       .  S
C846        H850   1.110       .  S
C846        H851   1.110       .  S
C846        H852   1.111       .  S
C853       C2246   1.397       .  A
C853        C858   1.390       .  A
C853        H860   1.084       .  S
C854       C2245   1.397   1_455  A
C854        C855   1.417       .  A
C855        C856   1.412       .  A
C855        C862   1.506       .  S
C856       C2249   1.410   1_455  A
C856        H861   1.084       .  S
C857       C2248   1.410       .  A
C857        C858   1.425       .  A
C858        C859   1.506       .  S
C859        H863   1.111       .  S
C859        H864   1.105       .  S
C859        H865   1.095       .  S
C862        H866   1.108       .  S
C862        H867   1.110       .  S
C862        H868   1.110       .  S
C869        C870   1.405       .  A
C869       C2266   1.405       .  A
C869       H2268   1.084       .  S
C870        C871   1.409       .  A
C871        C872   1.404       .  A
C871        C878   1.506       .  S
C872        C873   1.406       .  A
C872        H877   1.084       .  S
C873       C2266   1.410       .  A
C873       C2127   1.480       .  S
C874       C2261   1.405   1_455  A
C874       C2265   1.410   1_455  A
C874        C875   1.506       .  S
C875        H879   1.111       .  S
C875        H880   1.110       .  S
C875        H881   1.109       .  S
H876       C2261   1.084       .  S
C878        H882   1.110       .  S
C878        H883   1.110       .  S
C878        H884   1.111       .  S
C885        C886   1.404       .  A
C885        C890   1.405       .  A
C885        H892   1.085       .  S
C887        C894   1.508       .  S
C888        C889   1.406       .  A
C889        C890   1.412       .  A
C890        C891   1.506       .  S
C891        H895   1.111       .  S
C891        H896   1.108       .  S
C891        H897   1.110       .  S
C894        H898   1.111       .  S
C894        H899   1.110       .  S
C894        H900   1.111       .  S
C901        C902   1.399       .  A
C901        C906   1.410       .  A
C901        H908   1.084       .  S
C902        C903   1.410       .  A
C904       H1257   1.083       .  S
C905        C906   1.420       .  A
C905       C1148   1.503       .  S
C906        C907   1.493       .  S
C907        H911   1.111       .  S
C907        H912   1.107       .  S
C907        H913   1.109       .  S
H909       C1252   1.083   1_554  S
C910        H914   1.110       .  S
C910        H915   1.106       .  S
C910        H916   1.111       .  S
C917        C918   1.407       .  A
C917        C922   1.415       .  A
C917        H924   1.084       .  S
C918        C919   1.413       .  A
C919        C920   1.392       .  A
C919        C926   1.506       .  S
C920        C921   1.404       .  A
C920        H925   1.084       .  S
C921        C922   1.418       .  A
C922        C923   1.503       .  S
C923        H927   1.111       .  S
C923        H928   1.110       .  S
C923        H929   1.109       .  S
C926        H930   1.107       .  S
C933        C934   1.401       .  A
C933        C938   1.407       .  A
C933        H940   1.084       .  S
C934        C935   1.412       .  A
C935        C936   1.400       .  A
C936        C937   1.401       .  A
C937        C938   1.419       .  A
C938        C939   1.506       .  S
C939        H943   1.110       .  S
C939        H944   1.108       .  S
C939        H945   1.110       .  S
C942        H947   1.101       .  S
C942        H948   1.111       .  S
C949        C954   1.407       .  A
C949        H956   1.084       .  S
C950        C951   1.415       .  A
C951        C952   1.408       .  A
C951        C958   1.507       .  S
C952        H957   1.084       .  S
C953        C954   1.413       .  A
C954        C955   1.507       .  S
C955        H959   1.111       .  S
C955        H960   1.109       .  S
C955        H961   1.110       .  S
C958        H962   1.110       .  S
C958        H963   1.109       .  S
C958        H964   1.111       .  S
C965        C966   1.406       .  A
C965        C970   1.396       .  A
C965        H972   1.083       .  S
C966        C967   1.420       .  A
C967        C968   1.406       .  A
C967        C974   1.506       .  S
C968        C969   1.402       .  A
C968        H973   1.084       .  S
C969        C970   1.412       .  A
C970        C971   1.510       .  S
C971        H975   1.111       .  S
C971        H976   1.111       .  S
C971        H977   1.108       .  S
C974        H978   1.109       .  S
C974        H979   1.111       .  S
C974        H980   1.111       .  S
C981        C982   1.402       .  A
C981        C986   1.415       .  A
C981        H988   1.084       .  S
C982        C983   1.423       .  A
C983        C984   1.392       .  A
C983        C990   1.513       .  S
C984        C985   1.403       .  A
C984        H989   1.082       .  S
C985        C986   1.432       .  A
C986        C987   1.507       .  S
C987        H991   1.111       .  S
C987        H992   1.110       .  S
C987        H993   1.108       .  S
C990        H994   1.098       .  S
C990        H995   1.110       .  S
C990        H996   1.111       .  S
C997       C1346   1.404       .  A
C997       C1350   1.410       .  A
C997       H1004   1.084       .  S
C998       C1345   1.404       .  A
C998        C999   1.414       .  A
C998       C1049   1.487       .  S
C999       C1000   1.401       .  A
C999       C1006   1.509       .  S
C1000      C1001   1.406       .  A
C1000      H1005   1.084       .  S
C1001      C1002   1.417       .  A
C1002      C1345   1.410       .  A
C1002      C2743   1.502   1_554  S
C1003      C2742   1.502       .  S
C1003      H1007   1.111       .  S
C1003      H1356   1.109       .  S
C1003      H1009   1.110       .  S
C1006      H1010   1.110       .  S
C1006      H1011   1.108       .  S
C1006      H1012   1.111       .  S
H1008      C1351   1.109       .  S
C1013      C1014   1.400       .  A
C1013      C1018   1.403       .  A
C1013      H1020   1.084       .  S
C1014      C1363   1.413   1_554  A
C1014      C1045   1.485       .  S
C1015      C1362   1.413       .  A
C1015      C1364   1.409       .  A
C1015      C1022   1.506       .  S
C1016      C1363   1.409       .  A
C1016      C1017   1.404   1_556  A
C1016      H1369   1.077       .  S
C1017      C1018   1.421       .  A
C1018      C1019   1.510       .  S
C1019      H1023   1.111       .  S
C1019      H1024   1.108       .  S
C1019      H1025   1.111       .  S
H1021      C1364   1.077       .  S
C1022      H1026   1.109       .  S
C1022      H1027   1.110       .  S
C1022      H1028   1.111       .  S
C1029      C1030   1.404       .  A
C1029      C1034   1.409       .  A
C1029      H1384   1.084   1_554  S
C1030      C1031   1.413       .  A
C1031      C1032   1.404       .  A
C1031      C1038   1.507       .  S
C1032      C1033   1.401       .  A
C1032      H1037   1.084       .  S
C1033      C1034   1.413       .  A
C1034      C1035   1.505       .  S
C1035      H1387   1.111   1_554  S
C1035      H1040   1.110       .  S
C1035      H1041   1.110       .  S
H1036      C1377   1.084       .  S
C1038      H1042   1.109       .  S
C1038      H1043   1.110       .  S
C1038      H1044   1.111       .  S
H1039      C1383   1.111       .  S
C1045      C1050   1.406       .  A
C1046      C1047   1.404       .  A
C1046      H1051   1.084       .  S
C1047      C1048   1.402       .  A
C1047      C1378   1.482       .  S
C1048      H1052   1.084       .  S
C1049      C1050   1.404       .  A
C1050      H1053   1.084       .  S
C1054      C1055   1.407       .  A
C1054      C1059   1.409       .  A
C1054      C1314   1.491       .  S
C1055      C1056   1.396       .  A
C1055      H1060   1.084       .  S
C1056      C1057   1.397       .  A
C1056      C1381   1.482       .  S
C1057      C1058   1.417       .  A
C1057      H1061   1.083       .  S
C1058      C1059   1.406       .  A
C1058      C1333   1.512       .  S
C1059      H1062   1.071       .  S
C1063      C1064   1.409       .  A
C1063      C1068   1.403       .  A
C1063      C1266   1.487       .  S
C1064      C1065   1.411       .  A
C1064      H1069   1.083       .  S
C1065      C1066   1.407       .  A
C1065      C1298   1.490       .  S
C1066      C1067   1.401       .  A
C1066      H1070   1.084       .  S
C1067      C1068   1.398       .  A
C1067      C1282   1.479       .  S
C1068      H1071   1.084       .  S
C1072      C1073   1.398       .  A
C1072      C1077   1.406       .  A
C1072      C1250   1.479       .  S
C1073      C1074   1.397       .  A
C1073      H1078   1.085       .  S
C1074      C1075   1.405       .  A
C1074      C1237   1.479       .  S
C1075      C1076   1.406       .  A
C1075      H1079   1.084       .  S
C1076      C1077   1.409       .  A
C1076      C1301   1.489       .  S
C1077      H1080   1.083       .  S
C1081      C1082   1.401       .  A
C1081      C1086   1.401       .  A
C1081      C1189   1.469       .  S
C1082      C1083   1.400       .  A
C1082      H1087   1.084   1_455  S
C1083      C1084   1.399       .  A
C1083      C2613   1.480   1_455  S
C1084      C1085   1.409       .  A
C1084      H1088   1.084       .  S
C1085      C1086   1.401       .  A
C1085      C1202   1.487       .  S
C1086      H1089   1.084       .  S
C1090      C1091   1.407       .  A
C1090      C1095   1.402       .  A
C1090      C1170   1.478       .  S
C1091      C1092   1.402       .  A
C1091      H1096   1.084       .  S
C1092      C1093   1.398       .  A
C1092      C1218   1.478       .  S
C1093      C1094   1.402       .  A
C1093      H1097   1.083       .  S
C1094      C1095   1.400       .  A
C1094      C1157   1.483       .  S
C1095      H1098   1.084       .  S
O1099      C1110   1.299       .  A
O1099     Eu2527   2.506   1_455  S
O1100      C1111   1.293       .  A
O1100     Eu1134   2.477       .  S
O1101      C1112   1.295       .  A
O1101     Eu2499   2.493   1_455  S
O1102      C1113   1.302       .  A
O1102     Eu1107   2.524       .  S
O1103      C1113   1.277       .  A
O1103     Eu1137   2.388       .  S
O1104      C1112   1.287       .  A
O1105      C1111   1.287       .  A
O1105     Eu1107   2.426       .  S
O1106      C1110   1.286       .  A
O1106     Eu2499   2.429   1_455  S
Eu1107     O2493   2.493       .  S
Eu1107     O2498   2.429       .  S
Eu1107     O1117   2.350       .  S
Eu1107     O2501   2.361       .  S
Eu1107     O1108   2.340       .  S
Eu1107     O1115   2.365       .  S
O1108     Eu1137   2.343       .  S
O1108     Eu1134   2.348       .  S
O1109     Eu2499   2.361   1_455  S
O1109     Eu2527   2.349   1_455  S
C1110      C1365   1.490       .  S
C1111      C1154   1.486       .  S
C1112      C1269   1.492       .  S
C1113      C1330   1.492       .  S
H1114      O1115   0.966       .  S
O1115     Eu1832   2.352   1_565  S
O1115     Eu1134   2.342       .  S
H1116      O1117   0.966       .  S
O1117     Eu1135   2.356       .  S
O1117     Eu1137   2.358       .  S
O1118      C1141   1.291       .  A
O1120      C2535   1.287   1_455  A
O1120     Eu1136   2.449       .  S
O1121      C1144   1.299       .  A
O1121     Eu1137   2.512       .  S
O1122     Eu1137   2.479       .  S
O1123     Eu1136   2.472       .  S
O1124      C2539   1.298       .  A
O1124     Eu1138   2.500       .  S
O1125      C1148   1.299       .  A
O1125     Eu1138   2.511       .  S
O1126      C1147   1.288       .  A
O1126     Eu1136   2.433       .  S
O1127     Eu1137   2.421       .  S
O1128      C1143   1.289       .  A
O1129      C1146   1.285   1_565  A
O1129     Eu2527   2.427   1_455  S
O1130      C1145   1.286       .  A
O1131      C1144   1.282       .  A
O1131     Eu1134   2.408       .  S
O1132      C1141   1.290       .  A
O1132     Eu1138   2.447       .  S
O1133      C1142   1.284       .  A
Eu1134     O1152   2.363   1_565  S
Eu1135     O2491   2.506       .  S
Eu1135     O2521   2.427       .  S
Eu1135     O2501   2.349       .  S
Eu1135     O1139   2.367       .  S
Eu1136     O1811   2.352   1_455  S
Eu1136     O2542   2.327   1_455  S
Eu1136     O2532   2.349   1_455  S
Eu1137     O1139   2.352       .  S
Eu1137     O1152   2.340   1_565  S
Eu1138     O1150   2.347       .  S
Eu1138     O1140   2.359       .  S
O1140     Eu2528   2.349       .  S
C1141      C1317   1.472       .  S
C1142      C1205   1.497       .  S
C1143      C1186   1.492       .  S
C1143      O2512   1.287       .  A
C1144      C1285   1.473       .  S
C1145      C1173   1.484       .  S
C1147      C1349   1.492       .  S
C1147      O2516   1.298   1_455  A
H1149      O2542   0.964   1_455  S
O1150     Eu2528   2.327       .  S
O1150      H2541   0.964       .  S
C1153      C1154   1.404       .  A
C1153      C1158   1.394       .  A
C1153      H1160   1.082       .  S
C1154      C1155   1.416       .  A
C1155      C1156   1.409       .  A
C1155      C1162   1.506       .  S
C1156      C1157   1.407       .  A
C1156      H1161   1.084       .  S
C1157      C1158   1.415       .  A
C1158      C1159   1.513       .  S
C1159      H1163   1.111       .  S
C1159      H1164   1.107       .  S
C1159      H1165   1.110       .  S
C1162      H1166   1.108       .  S
C1162      H1167   1.110       .  S
C1162      H1168   1.111       .  S
C1169      C1170   1.396       .  A
C1169      C1174   1.396       .  A
C1169      H1176   1.085       .  S
C1170      C1171   1.414       .  A
C1171      C1172   1.408       .  A
C1171      C1178   1.506       .  S
C1172      C1173   1.405       .  A
C1172      H1177   1.084       .  S
C1173      C1174   1.421       .  A
C1174      C1175   1.506       .  S
C1175      H2571   1.111       .  S
C1175      H1180   1.110       .  S
C1175      H1181   1.109       .  S
C1178      H1182   1.110       .  S
C1178      H1183   1.109       .  S
C1178      H1184   1.111       .  S
H1179      C2567   1.111   1_455  S
C1185      C1186   1.410       .  A
C1185      C1190   1.397       .  A
C1185      H1192   1.083       .  S
C1186      C2579   1.425       .  A
C1187      C2578   1.425   1_455  A
C1187      C1188   1.405       .  A
C1187      C1194   1.509       .  S
C1188      C1189   1.398       .  A
C1188      H1193   1.084       .  S
C1189      C2582   1.407   1_455  A
C1190      C2581   1.407       .  A
C1190      C1191   1.509       .  S
C1191      H1195   1.111       .  S
C1191      H1196   1.110       .  S
C1191      H1197   1.110       .  S
C1194      H1198   1.110       .  S
C1194      H1199   1.110       .  S
C1194      H1200   1.111       .  S
C1201      C2594   1.397       .  A
C1201      C1206   1.390       .  A
C1201      H1208   1.084       .  S
C1202      C2593   1.397   1_455  A
C1202      C1203   1.417       .  A
C1203      C1204   1.412       .  A
C1203      C1210   1.506       .  S
C1204      C2597   1.410   1_455  A
C1204      H1209   1.084       .  S
C1205      C2596   1.410       .  A
C1205      C1206   1.425       .  A
C1206      C1207   1.506       .  S
C1207      H1211   1.111       .  S
C1207      H1212   1.105       .  S
C1207      H1213   1.095       .  S
C1210      H1214   1.108       .  S
C1210      H1215   1.110       .  S
C1210      H1216   1.110       .  S
C1217      C1218   1.405       .  A
C1217      C2614   1.405       .  A
C1217      H2616   1.084       .  S
C1218      C1219   1.409       .  A
C1219      C1220   1.404       .  A
C1219      C1226   1.506       .  S
C1220      C1221   1.406       .  A
C1220      H1225   1.084       .  S
C1221      C2614   1.410       .  A
C1221      C2475   1.480       .  S
C1222      C2609   1.405   1_455  A
C1222      C2613   1.410   1_455  A
C1222      C1223   1.506       .  S
C1223      H1227   1.111       .  S
C1223      H1228   1.110       .  S
C1223      H1229   1.109       .  S
H1224      C2609   1.084       .  S
C1226      H1230   1.110       .  S
C1226      H1231   1.110       .  S
C1226      H1232   1.111       .  S
C1233      C1234   1.404       .  A
C1233      C1238   1.405       .  A
C1233      H1240   1.085       .  S
C1235      C1242   1.508       .  S
C1236      C1237   1.406       .  A
C1237      C1238   1.412       .  A
C1238      C1239   1.506       .  S
C1239      H1243   1.111       .  S
C1239      H1244   1.108       .  S
C1239      H1245   1.110       .  S
C1242      H1246   1.111       .  S
C1242      H1247   1.110       .  S
C1242      H1248   1.111       .  S
C1249      C1250   1.399       .  A
C1249      C1254   1.410       .  A
C1249      H1256   1.084       .  S
C1250      C1251   1.410       .  A
C1253      C1254   1.420       .  A
C1254      C1255   1.493       .  S
C1255      H1259   1.111       .  S
C1255      H1260   1.107       .  S
C1255      H1261   1.109       .  S
C1258      H1262   1.110       .  S
C1258      H1263   1.106       .  S
C1258      H1264   1.111       .  S
C1265      C1266   1.407       .  A
C1265      C1270   1.415       .  A
C1265      H1272   1.084       .  S
C1266      C1267   1.413       .  A
C1267      C1268   1.392       .  A
C1267      C1274   1.506       .  S
C1268      C1269   1.404       .  A
C1268      H1273   1.084       .  S
C1269      C1270   1.418       .  A
C1270      C1271   1.503       .  S
C1271      H1275   1.111       .  S
C1271      H1276   1.110       .  S
C1271      H1277   1.109       .  S
C1274      H1278   1.107       .  S
C1281      C1282   1.401       .  A
C1281      C1286   1.407       .  A
C1281      H1288   1.084       .  S
C1282      C1283   1.412       .  A
C1283      C1284   1.400       .  A
C1284      C1285   1.401       .  A
C1285      C1286   1.419       .  A
C1286      C1287   1.506       .  S
C1287      H1291   1.110       .  S
C1287      H1292   1.108       .  S
C1287      H1293   1.110       .  S
C1290      H1295   1.101       .  S
C1290      H1296   1.111       .  S
C1297      C1302   1.407       .  A
C1297      H1304   1.084       .  S
C1298      C1299   1.415       .  A
C1299      C1300   1.408       .  A
C1299      C1306   1.507       .  S
C1300      H1305   1.084       .  S
C1301      C1302   1.413       .  A
C1302      C1303   1.507       .  S
C1303      H1307   1.111       .  S
C1303      H1308   1.109       .  S
C1303      H1309   1.110       .  S
C1306      H1310   1.110       .  S
C1306      H1311   1.109       .  S
C1306      H1312   1.111       .  S
C1313      C1314   1.406       .  A
C1313      C1318   1.396       .  A
C1313      H1320   1.083       .  S
C1314      C1315   1.420       .  A
C1315      C1316   1.406       .  A
C1315      C1322   1.506       .  S
C1316      C1317   1.402       .  A
C1316      H1321   1.084       .  S
C1317      C1318   1.412       .  A
C1318      C1319   1.510       .  S
C1319      H1323   1.111       .  S
C1319      H1324   1.111       .  S
C1319      H1325   1.108       .  S
C1322      H1326   1.109       .  S
C1322      H1327   1.111       .  S
C1322      H1328   1.110       .  S
C1329      C1330   1.402       .  A
C1329      C1334   1.415       .  A
C1329      H1336   1.084       .  S
C1330      C1331   1.423       .  A
C1331      C1332   1.392       .  A
C1331      C1338   1.513       .  S
C1332      C1333   1.403       .  A
C1332      H1337   1.082       .  S
C1333      C1334   1.432       .  A
C1334      C1335   1.507       .  S
C1335      H1339   1.111       .  S
C1335      H1340   1.110       .  S
C1335      H1341   1.108       .  S
C1338      H1342   1.098       .  S
C1338      H1343   1.110       .  S
C1338      H1344   1.111       .  S
C1345      H1352   1.084   1_554  S
C1346      C1347   1.414       .  A
C1347      C1348   1.401       .  A
C1347      C1354   1.509       .  S
C1348      C1349   1.406       .  A
C1348      H1353   1.084       .  S
C1349      C1350   1.417       .  A
C1350      C2395   1.502       .  S
C1351      C2394   1.502   1_556  S
C1351      H1355   1.111       .  S
C1351      H1357   1.110       .  S
C1354      H1358   1.110       .  S
C1354      H1359   1.108       .  S
C1354      H1360   1.111       .  S
C1361      C1362   1.400       .  A
C1361      C1366   1.403       .  A
C1361      H1368   1.084       .  S
C1363      C1370   1.506       .  S
C1364      C1365   1.404       .  A
C1365      C1366   1.421       .  A
C1366      C1367   1.510       .  S
C1367      H1371   1.111       .  S
C1367      H1372   1.108       .  S
C1367      H1373   1.111       .  S
C1370      H1374   1.109       .  S
C1370      H1375   1.110       .  S
C1370      H1376   1.111       .  S
C1377      C1378   1.404       .  A
C1377      C1382   1.409       .  A
C1378      C1379   1.413       .  A
C1379      C1380   1.404       .  A
C1379      C1386   1.507       .  S
C1380      C1381   1.401       .  A
C1380      H1385   1.084       .  S
C1381      C1382   1.413       .  A
C1382      C1383   1.505       .  S
C1383      H1388   1.110       .  S
C1383      H1389   1.110       .  S
C1386      H1390   1.109       .  S
C1386      H1391   1.110       .  S
C1386      H1392   1.111       .  S
C1393      C1742   1.407       .  A
C1393      C1398   1.406       .  A
C1393      C2058   1.485       .  S
C1394      C1741   1.407       .  A
C1394      C1395   1.404       .  A
C1394      H1399   1.084       .  S
C1395      C1396   1.402       .  A
C1395      C1726   1.482       .  S
C1396      C1745   1.405       .  A
C1396      H1400   1.084       .  S
C1397      C1744   1.405       .  A
C1397      C1398   1.404       .  A
C1397      C2042   1.487       .  S
C1398      H1401   1.084       .  S
C1402      C1403   1.407       .  A
C1402      C1407   1.409       .  A
C1402      C1662   1.491       .  S
C1403      C1404   1.396       .  A
C1403      H1408   1.084       .  S
C1404      C1405   1.397       .  A
C1404      C1729   1.482       .  S
C1405      C1406   1.417       .  A
C1405      H1409   1.083       .  S
C1406      C1407   1.406       .  A
C1406      C1681   1.512       .  S
C1407      H1410   1.071       .  S
C1411      C1412   1.409       .  A
C1411      C1416   1.403       .  A
C1411      C1614   1.487       .  S
C1412      C1413   1.411       .  A
C1412      H1417   1.083       .  S
C1413      C1414   1.407       .  A
C1413      C1646   1.490       .  S
C1414      C1415   1.401       .  A
C1414      H1418   1.084       .  S
C1415      C1416   1.398       .  A
C1415      C1630   1.479       .  S
C1416      H1419   1.084       .  S
C1420      C1421   1.398       .  A
C1420      C1425   1.406       .  A
C1420      C1598   1.479       .  S
C1421      C1422   1.397       .  A
C1421      H1426   1.085       .  S
C1422      C1423   1.405       .  A
C1422      C1585   1.479       .  S
C1423      C1424   1.406       .  A
C1423      H1427   1.084       .  S
C1424      C1425   1.409       .  A
C1424      C1649   1.489   1_545  S
C1425      H1428   1.083       .  S
C1429      C1430   1.401       .  A
C1429      C1434   1.401       .  A
C1429      C1537   1.469       .  S
C1430      C1431   1.400       .  A
C1430      H1435   1.084       .  S
C1431      C1432   1.399       .  A
C1432      C1433   1.409       .  A
C1432      H1436   1.084       .  S
C1433      C1434   1.401       .  A
C1433      C1550   1.487       .  S
C1434      H1437   1.084       .  S
C1438      C1439   1.407       .  A
C1438      C1443   1.402       .  A
C1438      C1518   1.478       .  S
C1439      C1440   1.402       .  A
C1439      H1444   1.084       .  S
C1440      C1441   1.398       .  A
C1440      C1566   1.478       .  S
C1441      C1442   1.402       .  A
C1441      H1445   1.083       .  S
C1442      C1443   1.400       .  A
C1442      C1505   1.483       .  S
C1443      H1446   1.084       .  S
O1447      C1458   1.299       .  A
O1448      C1459   1.293       .  A
O1448     Eu1482   2.477       .  S
O1449      C1460   1.295       .  A
O1450      C1461   1.302       .  A
O1450     Eu1455   2.524       .  S
O1451      C1461   1.277       .  A
O1451     Eu1485   2.388       .  S
O1452      C1460   1.287       .  A
O1452     Eu2180   2.422       .  S
O1453      C1459   1.287       .  A
O1453     Eu1455   2.426       .  S
O1454      C1458   1.286       .  A
Eu1455     O1465   2.350       .  S
Eu1455     O1456   2.340       .  S
Eu1455     O1463   2.365       .  S
O1456     Eu1485   2.343       .  S
O1456     Eu1482   2.348       .  S
O1457     Eu2180   2.348       .  S
C1458      C1713   1.490       .  S
C1459      C1502   1.486       .  S
C1460      C1617   1.492       .  S
C1461      C1678   1.492       .  S
H1462      O1463   0.966       .  S
O1463     Eu1482   2.342       .  S
H1464      O1465   0.966       .  S
O1465     Eu1483   2.356       .  S
O1465     Eu1485   2.358       .  S
O1466      C1489   1.291       .  A
O1466     Eu2178   2.465   1_545  S
O1467      C2186   1.297       .  A
O1467     Eu1831   2.493       .  S
O1468     Eu1484   2.449       .  S
O1469      C1492   1.299       .  A
O1469     Eu1485   2.512       .  S
O1470      C1841   1.294       .  A
O1470     Eu1485   2.479   1_556  S
O1471      C2190   1.292       .  A
O1471     Eu1484   2.472       .  S
O1472     Eu1486   2.500       .  S
O1473      C1496   1.299   1_554  A
O1473     Eu1486   2.511       .  S
O1474      C1495   1.288       .  A
O1474     Eu1484   2.433       .  S
O1475      C2192   1.286   1_554  A
O1475     Eu1485   2.421       .  S
O1476      C1491   1.289       .  A
O1476     Eu2178   2.441   1_545  S
O1477      C1494   1.285   1_556  A
O1478      C1493   1.286       .  A
O1478     Eu1831   2.431       .  S
O1479      C1492   1.282       .  A
O1479     Eu1482   2.408       .  S
O1480      C1489   1.290       .  A
O1480     Eu1486   2.447       .  S
O1481      C1490   1.284       .  A
O1481     Eu1834   2.426       .  S
Eu1482     O2162   2.465       .  S
Eu1482     O2172   2.441       .  S
Eu1482     O1500   2.363       .  S
Eu1482     O2184   2.350       .  S
Eu1483     O1815   2.493   1_554  S
Eu1483     O1826   2.431   1_554  S
Eu1483     O1487   2.367       .  S
Eu1483     O2194   2.344       .  S
Eu1484     O2148   2.422   1_545  S
Eu1484     O2153   2.348   1_545  S
Eu1485     O1487   2.352       .  S
Eu1485     O1500   2.340       .  S
Eu1486     O1829   2.426   1_554  S
Eu1486     O2183   2.361   1_545  S
Eu1486     O1498   2.347       .  S
Eu1486     O2196   2.351       .  S
Eu1486     O1488   2.359       .  S
O1487     Eu2182   2.361       .  S
O1488     Eu2178   2.350   1_545  S
C1489      C1665   1.472       .  S
C1490      C1553   1.497       .  S
C1490      O2163   1.297       .  A
C1491      C1534   1.492       .  S
C1492      C1633   1.473       .  S
C1493      C1521   1.484       .  S
C1493      O1818   1.294       .  A
C1494      C2626   1.463   1_554  S
C1494      O2167   1.292       .  A
C1495      C1697   1.492       .  S
C1496      C1949   1.503       .  S
C1496      O2171   1.286   1_546  A
O1498     Eu2179   2.344   1_545  S
H1499      O2196   0.966       .  S
O1500     Eu2182   2.351       .  S
O1500      H2195   0.966       .  S
C1501      C1502   1.404       .  A
C1501      C1506   1.394       .  A
C1501      H1508   1.082       .  S
C1502      C1503   1.416       .  A
C1503      C1504   1.409       .  A
C1503      C1510   1.506       .  S
C1504      C1505   1.407       .  A
C1504      H1509   1.084       .  S
C1505      C1506   1.415       .  A
C1506      C1507   1.513       .  S
C1507      H1511   1.111   1_655  S
C1507      H1512   1.107       .  S
C1507      H1513   1.110       .  S
C1510      H1514   1.108       .  S
C1510      H1515   1.110       .  S
C1510      H1516   1.111       .  S
C1517      C1518   1.396       .  A
C1517      C1522   1.396       .  A
C1517      H1524   1.085       .  S
C1518      C1519   1.414       .  A
C1519      C1520   1.408       .  A
C1519      C1526   1.506       .  S
C1520      C1521   1.405       .  A
C1520      H1525   1.084       .  S
C1521      C1522   1.421       .  A
C1522      C1523   1.506       .  S
C1523      H1528   1.110       .  S
C1523      H1529   1.109   1_655  S
C1526      H1530   1.110       .  S
C1526      H1531   1.109       .  S
C1526      H1532   1.111       .  S
C1533      C1534   1.410       .  A
C1533      C1538   1.397       .  A
C1533      H1540   1.083       .  S
C1535      C1536   1.405       .  A
C1535      C1542   1.509       .  S
C1536      C1537   1.398       .  A
C1536      H1541   1.084       .  S
C1538      C1539   1.509       .  S
C1539      H1543   1.111       .  S
C1539      H1544   1.110       .  S
C1539      H1545   1.110       .  S
C1542      H1546   1.110       .  S
C1542      H1547   1.110       .  S
C1542      H1548   1.111       .  S
C1549      C1554   1.390       .  A
C1549      H1556   1.084       .  S
C1550      C1551   1.417       .  A
C1551      C1552   1.412       .  A
C1551      C1558   1.506       .  S
C1552      H1557   1.084       .  S
C1553      C1554   1.425       .  A
C1554      C1555   1.506       .  S
C1555      H1559   1.111       .  S
C1555      H1560   1.105       .  S
C1555      H1561   1.095       .  S
C1558      H1562   1.108       .  S
C1558      H1563   1.110       .  S
C1558      H1564   1.110       .  S
C1565      C1566   1.405       .  A
C1566      C1567   1.409       .  A
C1567      C1568   1.404       .  A
C1567      C1574   1.506       .  S
C1568      C1569   1.406       .  A
C1568      H1573   1.084       .  S
C1570      C1571   1.506       .  S
C1571      H1575   1.111       .  S
C1571      H1576   1.110       .  S
C1571      H1577   1.109       .  S
C1574      H1578   1.110       .  S
C1574      H1579   1.110       .  S
C1574      H1580   1.111       .  S
C1581      C1582   1.404       .  A
C1581      C1586   1.405       .  A
C1581      H1588   1.085       .  S
C1582      C2627   1.406   1_545  A
C1582      C2538   1.463       .  S
C1583      C2626   1.406   1_554  A
C1583      C2628   1.399   1_554  A
C1583      C1590   1.508       .  S
C1584      C2627   1.399   1_545  A
C1584      C1585   1.406       .  A
C1584      H2285   1.082   1_545  S
C1585      C1586   1.412       .  A
C1586      C1587   1.506       .  S
C1587      H1591   1.111       .  S
C1587      H1592   1.108       .  S
C1587      H1593   1.110       .  S
H1589      C2280   1.082       .  S
C1590      H1594   1.111       .  S
C1590      H1595   1.110       .  S
C1590      H1596   1.111       .  S
C1597      C1598   1.399       .  A
C1597      C1602   1.410       .  A
C1597      H1604   1.084       .  S
C1598      C1599   1.410   1_545  A
C1599      C2296   1.397       .  A
C1599      C2302   1.509       .  S
C1600      C2295   1.397       .  A
C1600      C2297   1.410       .  A
C1600      H1953   1.083       .  S
C1601      C2296   1.410   1_545  A
C1601      C1602   1.420       .  A
C1601      C1844   1.503       .  S
C1602      C1603   1.493       .  S
C1603      H1607   1.111       .  S
C1603      H1608   1.107       .  S
C1603      H1609   1.109       .  S
H1605      C1948   1.083   1_554  S
C1606      C2295   1.509       .  S
C1606      H1610   1.110       .  S
C1606      H1611   1.106       .  S
C1606      H1612   1.111       .  S
C1613      C1614   1.407       .  A
C1613      C1618   1.415       .  A
C1613      H1620   1.084       .  S
C1614      C1615   1.413       .  A
C1615      C1616   1.392       .  A
C1615      C1622   1.506       .  S
C1616      C1617   1.404       .  A
C1616      H1621   1.084       .  S
C1617      C1618   1.418       .  A
C1618      C1619   1.503       .  S
C1619      H1623   1.111       .  S
C1619      H1624   1.110       .  S
C1619      H1625   1.109       .  S
C1622      H1626   1.107       .  S
C1622      H2323   1.110       .  S
C1622      H2324   1.111       .  S
H1627      C2318   1.110   1_545  S
H1628      C2318   1.111   1_545  S
C1629      C1630   1.401       .  A
C1629      C1634   1.407       .  A
C1629      H1636   1.084       .  S
C1630      C1631   1.412       .  A
C1631      C1632   1.400       .  A
C1631      C2334   1.506       .  S
C1632      C1633   1.401       .  A
C1632      H2333   1.085       .  S
C1633      C1634   1.419       .  A
C1634      C1635   1.506       .  S
C1635      H1639   1.110       .  S
C1635      H1640   1.108       .  S
C1635      H1641   1.110       .  S
H1637      C2328   1.085   1_545  S
C1638      C2327   1.506   1_545  S
C1638      H2338   1.110       .  S
C1638      H1643   1.101       .  S
C1638      H1644   1.111       .  S
H1642      C2334   1.110       .  S
C1645      C2342   1.406   1_545  A
C1645      C1650   1.407       .  A
C1645      H1652   1.084       .  S
C1646      C2341   1.406       .  A
C1646      C1647   1.415       .  A
C1647      C1648   1.408       .  A
C1647      C1654   1.507       .  S
C1648      C2345   1.405       .  A
C1648      H1653   1.084       .  S
C1649      C2344   1.405       .  A
C1649      C1650   1.413   1_565  A
C1650      C1651   1.507       .  S
C1651      H1655   1.111       .  S
C1651      H1656   1.109       .  S
C1651      H1657   1.110       .  S
C1654      H1658   1.110       .  S
C1654      H1659   1.109       .  S
C1654      H1660   1.111       .  S
C1661      C1662   1.406       .  A
C1661      C1666   1.396       .  A
C1661      H1668   1.083       .  S
C1662      C1663   1.420       .  A
C1663      C1664   1.406       .  A
C1663      C1670   1.506       .  S
C1664      C1665   1.402       .  A
C1664      H1669   1.084       .  S
C1665      C1666   1.412       .  A
C1666      C1667   1.510       .  S
C1667      H1671   1.111       .  S
C1667      H1672   1.111       .  S
C1667      H1673   1.108       .  S
C1670      H1674   1.109       .  S
C1670      H1675   1.111       .  S
C1670      H1676   1.111       .  S
C1677      C1678   1.402       .  A
C1677      C1682   1.415       .  A
C1677      H1684   1.084       .  S
C1678      C1679   1.423       .  A
C1679      C1680   1.392       .  A
C1679      C1686   1.513       .  S
C1680      C1681   1.403       .  A
C1680      H1685   1.082       .  S
C1681      C1682   1.432       .  A
C1682      C1683   1.507       .  S
C1683      H1687   1.111       .  S
C1683      H1688   1.110       .  S
C1683      H1689   1.108       .  S
C1686      H1690   1.098       .  S
C1686      H1691   1.110       .  S
C1686      H1692   1.111       .  S
C1693      C2042   1.404       .  A
C1693      C2046   1.410       .  A
C1693      H1700   1.084       .  S
C1694      C2041   1.404       .  A
C1694      C1695   1.414       .  A
C1694      C1745   1.487       .  S
C1695      C1696   1.401       .  A
C1695      C1702   1.509       .  S
C1696      C1697   1.406       .  A
C1696      H1701   1.084       .  S
C1697      C1698   1.417       .  A
C1698      C2041   1.410       .  A
C1699      H1703   1.111       .  S
C1699      H2052   1.109   1_455  S
C1699      H1705   1.110       .  S
C1702      H1706   1.110       .  S
C1702      H1707   1.108       .  S
C1702      H1708   1.111       .  S
H1704      C2047   1.109   1_655  S
C1709      C1710   1.400       .  A
C1709      C1714   1.403       .  A
C1709      H1716   1.084       .  S
C1710      C2059   1.413   1_554  A
C1710      C1741   1.485       .  S
C1711      C2058   1.413       .  A
C1711      C2060   1.409       .  A
C1711      C1718   1.506       .  S
C1712      C2059   1.409       .  A
C1712      C1713   1.404   1_556  A
C1712      H2065   1.077       .  S
C1713      C1714   1.421       .  A
C1714      C1715   1.510       .  S
C1715      H1719   1.111       .  S
C1715      H1720   1.108       .  S
C1715      H1721   1.111       .  S
H1717      C2060   1.077       .  S
C1718      H1722   1.109       .  S
C1718      H1723   1.110       .  S
C1718      H1724   1.111       .  S
C1725      C1726   1.404       .  A
C1725      C1730   1.409       .  A
C1725      H2080   1.084   1_554  S
C1726      C1727   1.413       .  A
C1727      C1728   1.404       .  A
C1727      C1734   1.507       .  S
C1728      C1729   1.401       .  A
C1728      H1733   1.084       .  S
C1729      C1730   1.413       .  A
C1730      C1731   1.505       .  S
C1731      H2083   1.111   1_554  S
C1731      H1736   1.110       .  S
C1731      H1737   1.110       .  S
H1732      C2073   1.084       .  S
C1734      H1738   1.109       .  S
C1734      H1739   1.110       .  S
C1734      H1740   1.111       .  S
H1735      C2079   1.111       .  S
C1741      C1746   1.406       .  A
C1742      C1743   1.404       .  A
C1742      H1747   1.084       .  S
C1743      C1744   1.402       .  A
C1743      C2074   1.482       .  S
C1744      H1748   1.084       .  S
C1745      C1746   1.404       .  A
C1746      H1749   1.084       .  S
C1750      C1751   1.407       .  A
C1750      C1755   1.409       .  A
C1750      C2010   1.491       .  S
C1751      C1752   1.396       .  A
C1751      H1756   1.084       .  S
C1752      C1753   1.397       .  A
C1752      C2077   1.482       .  S
C1753      C1754   1.417       .  A
C1753      H1757   1.083       .  S
C1754      C1755   1.406       .  A
C1754      C2029   1.512       .  S
C1755      H1758   1.071       .  S
C1759      C1760   1.409       .  A
C1759      C1764   1.403       .  A
C1759      C1962   1.487       .  S
C1760      C1761   1.411       .  A
C1760      H1765   1.083       .  S
C1761      C1762   1.407       .  A
C1761      C1994   1.490       .  S
C1762      C1763   1.401       .  A
C1762      H1766   1.084       .  S
C1763      C1764   1.398       .  A
C1763      C1978   1.479       .  S
C1764      H1767   1.084       .  S
C1768      C1769   1.398       .  A
C1768      C1773   1.406       .  A
C1768      C1946   1.479       .  S
C1769      C1770   1.397       .  A
C1769      H1774   1.085       .  S
C1770      C1771   1.405       .  A
C1770      C1933   1.479       .  S
C1771      C1772   1.406       .  A
C1771      H1775   1.084       .  S
C1772      C1773   1.409       .  A
C1772      C1997   1.489   1_545  S
C1773      H1776   1.083       .  S
C1777      C1778   1.401       .  A
C1777      C1782   1.401       .  A
C1777      C1885   1.469       .  S
C1778      C1779   1.400       .  A
C1778      H1783   1.084       .  S
C1779      C1780   1.399       .  A
C1780      C1781   1.409       .  A
C1780      H1784   1.084       .  S
C1781      C1782   1.401       .  A
C1781      C1898   1.487       .  S
C1782      H1785   1.084       .  S
C1786      C1787   1.407       .  A
C1786      C1791   1.402       .  A
C1786      C1866   1.478       .  S
C1787      C1788   1.402       .  A
C1787      H1792   1.084       .  S
C1788      C1789   1.398       .  A
C1788      C1914   1.478       .  S
C1789      C1790   1.402       .  A
C1789      H1793   1.083       .  S
C1790      C1791   1.400       .  A
C1790      C1853   1.483       .  S
C1791      H1794   1.084       .  S
O1795      C1806   1.299       .  A
O1796      C1807   1.293       .  A
O1796     Eu1830   2.477       .  S
O1797      C1808   1.295       .  A
O1798      C1809   1.302       .  A
O1798     Eu1803   2.524       .  S
O1799      C1809   1.277       .  A
O1799     Eu1833   2.388       .  S
O1800      C1808   1.287       .  A
O1800     Eu2528   2.422       .  S
O1801      C1807   1.287       .  A
O1801     Eu1803   2.426       .  S
O1802      C1806   1.286       .  A
Eu1803     O1813   2.350       .  S
Eu1803     O1804   2.340       .  S
Eu1803     O1811   2.365       .  S
O1804     Eu1833   2.343       .  S
O1804     Eu1830   2.348       .  S
O1805     Eu2528   2.348       .  S
C1806      C2061   1.490       .  S
C1807      C1850   1.486       .  S
C1808      C1965   1.492       .  S
C1809      C2026   1.492       .  S
H1810      O1811   0.966       .  S
O1811     Eu1830   2.342       .  S
H1812      O1813   0.966       .  S
O1813     Eu1831   2.356       .  S
O1813     Eu1833   2.358       .  S
O1814      C1837   1.291       .  A
O1814     Eu2526   2.465   1_545  S
O1815      C2534   1.297       .  A
O1816     Eu1832   2.449       .  S
O1817      C1840   1.299       .  A
O1817     Eu1833   2.512       .  S
O1818     Eu1833   2.479       .  S
O1819      C2538   1.292       .  A
O1819     Eu1832   2.472       .  S
O1820     Eu1834   2.500       .  S
O1821      C1844   1.299       .  A
O1821     Eu1834   2.511       .  S
O1822      C1843   1.288       .  A
O1822     Eu1832   2.433       .  S
O1823      C2540   1.286       .  A
O1823     Eu1833   2.421       .  S
O1824      C1839   1.289       .  A
O1824     Eu2526   2.441   1_545  S
O1825      C1842   1.285       .  A
O1826      C1841   1.286       .  A
O1827      C1840   1.282       .  A
O1827     Eu1830   2.408       .  S
O1828      C1837   1.290       .  A
O1828     Eu1834   2.447       .  S
O1829      C1838   1.284       .  A
Eu1830     O2510   2.465       .  S
Eu1830     O2520   2.441       .  S
Eu1830     O1848   2.363       .  S
Eu1830     O2532   2.350       .  S
Eu1831     O1835   2.367       .  S
Eu1831     O2542   2.344       .  S
Eu1832     O2496   2.422   1_545  S
Eu1832     O2501   2.348   1_545  S
Eu1833     O1835   2.352       .  S
Eu1833     O1848   2.340       .  S
Eu1834     O2531   2.361   1_545  S
Eu1834     O1846   2.347       .  S
Eu1834     O2544   2.351       .  S
Eu1834     O1836   2.359       .  S
O1835     Eu2530   2.361       .  S
O1836     Eu2526   2.350   1_545  S
C1837      C2013   1.472       .  S
C1838      C1901   1.497       .  S
C1838      O2511   1.297       .  A
C1839      C1882   1.492       .  S
C1840      C1981   1.473       .  S
C1841      C1869   1.484       .  S
C1842      C2278   1.463       .  S
C1842      O2515   1.292       .  A
C1843      C2045   1.492       .  S
C1844      O2519   1.286   1_545  A
O1846     Eu2527   2.344   1_545  S
H1847      O2544   0.966       .  S
O1848     Eu2530   2.351       .  S
O1848      H2543   0.966       .  S
C1849      C1850   1.404       .  A
C1849      C1854   1.394       .  A
C1849      H1856   1.082       .  S
C1850      C1851   1.416       .  A
C1851      C1852   1.409       .  A
C1851      C1858   1.506       .  S
C1852      C1853   1.407       .  A
C1852      H1857   1.084       .  S
C1853      C1854   1.415       .  A
C1854      C1855   1.513       .  S
C1855      H1859   1.111   1_655  S
C1855      H1860   1.107       .  S
C1855      H1861   1.110       .  S
C1858      H1862   1.108       .  S
C1858      H1863   1.110       .  S
C1858      H1864   1.111       .  S
C1865      C1866   1.396       .  A
C1865      C1870   1.396       .  A
C1865      H1872   1.085       .  S
C1866      C1867   1.414       .  A
C1867      C1868   1.408       .  A
C1867      C1874   1.506       .  S
C1868      C1869   1.405       .  A
C1868      H1873   1.084       .  S
C1869      C1870   1.421       .  A
C1870      C1871   1.506       .  S
C1871      H1876   1.110       .  S
C1871      H1877   1.109   1_655  S
C1874      H1878   1.110       .  S
C1874      H1879   1.109       .  S
C1874      H1880   1.111       .  S
C1881      C1882   1.410       .  A
C1881      C1886   1.397       .  A
C1881      H1888   1.083       .  S
C1883      C1884   1.405       .  A
C1883      C1890   1.509       .  S
C1884      C1885   1.398       .  A
C1884      H1889   1.084       .  S
C1886      C1887   1.509       .  S
C1887      H1891   1.111       .  S
C1887      H1892   1.110       .  S
C1887      H1893   1.110       .  S
C1890      H1894   1.110       .  S
C1890      H1895   1.110       .  S
C1890      H1896   1.111       .  S
C1897      C1902   1.390       .  A
C1897      H1904   1.084       .  S
C1898      C1899   1.417       .  A
C1899      C1900   1.412       .  A
C1899      C1906   1.506       .  S
C1900      H1905   1.084       .  S
C1901      C1902   1.425       .  A
C1902      C1903   1.506       .  S
C1903      H1907   1.111       .  S
C1903      H1908   1.105       .  S
C1903      H1909   1.095       .  S
C1906      H1910   1.108       .  S
C1906      H1911   1.110       .  S
C1906      H1912   1.110       .  S
C1913      C1914   1.405       .  A
C1914      C1915   1.409       .  A
C1915      C1916   1.404       .  A
C1915      C1922   1.506       .  S
C1916      C1917   1.406       .  A
C1916      H1921   1.084       .  S
C1918      C1919   1.506       .  S
C1919      H1923   1.111       .  S
C1919      H1924   1.110       .  S
C1919      H1925   1.109       .  S
C1922      H1926   1.110       .  S
C1922      H1927   1.110       .  S
C1922      H1928   1.111       .  S
C1929      C1930   1.404       .  A
C1929      C1934   1.405       .  A
C1929      H1936   1.085       .  S
C1930      C2279   1.406   1_546  A
C1930      C2190   1.463   1_556  S
C1931      C2278   1.406       .  A
C1931      C2280   1.399       .  A
C1931      C1938   1.508       .  S
C1932      C2279   1.399   1_546  A
C1932      C1933   1.406       .  A
C1932      H2633   1.082   1_545  S
C1933      C1934   1.412       .  A
C1934      C1935   1.506       .  S
C1935      H1939   1.111       .  S
C1935      H1940   1.108       .  S
C1935      H1941   1.110       .  S
H1937      C2628   1.082       .  S
C1938      H1942   1.111       .  S
C1938      H1943   1.110       .  S
C1938      H1944   1.111       .  S
C1945      C1946   1.399       .  A
C1945      C1950   1.410       .  A
C1945      H1952   1.084       .  S
C1946      C1947   1.410   1_545  A
C1947      C2644   1.397       .  A
C1947      C2650   1.509       .  S
C1948      C2643   1.397       .  A
C1948      C2645   1.410       .  A
C1949      C2644   1.410   1_545  A
C1949      C1950   1.420       .  A
C1950      C1951   1.493       .  S
C1951      H1955   1.111       .  S
C1951      H1956   1.107       .  S
C1951      H1957   1.109       .  S
C1954      C2643   1.509       .  S
C1954      H1958   1.110       .  S
C1954      H1959   1.106       .  S
C1954      H1960   1.111       .  S
C1961      C1962   1.407       .  A
C1961      C1966   1.415       .  A
C1961      H1968   1.084       .  S
C1962      C1963   1.413       .  A
C1963      C1964   1.392       .  A
C1963      C1970   1.506       .  S
C1964      C1965   1.404       .  A
C1964      H1969   1.084       .  S
C1965      C1966   1.418       .  A
C1966      C1967   1.503       .  S
C1967      H1971   1.111       .  S
C1967      H1972   1.110       .  S
C1967      H1973   1.109       .  S
C1970      H1974   1.107       .  S
C1970      H2671   1.110       .  S
C1970      H2672   1.111       .  S
H1975      C2666   1.110   1_545  S
H1976      C2666   1.111   1_545  S
C1977      C1978   1.401       .  A
C1977      C1982   1.407       .  A
C1977      H1984   1.084       .  S
C1978      C1979   1.412       .  A
C1979      C1980   1.400       .  A
C1979      C2682   1.506       .  S
C1980      C1981   1.401       .  A
C1980      H2681   1.085       .  S
C1981      C1982   1.419       .  A
C1982      C1983   1.506       .  S
C1983      H1987   1.110       .  S
C1983      H1988   1.108       .  S
C1983      H1989   1.110       .  S
H1985      C2676   1.085   1_545  S
C1986      C2675   1.506   1_545  S
C1986      H2686   1.110       .  S
C1986      H1991   1.101       .  S
C1986      H1992   1.111       .  S
H1990      C2682   1.110       .  S
C1993      C2690   1.406   1_545  A
C1993      C1998   1.407       .  A
C1993      H2000   1.084       .  S
C1994      C2689   1.406       .  A
C1994      C1995   1.415       .  A
C1995      C1996   1.408       .  A
C1995      C2002   1.507       .  S
C1996      C2693   1.405       .  A
C1996      H2001   1.084       .  S
C1997      C2692   1.405       .  A
C1997      C1998   1.413   1_565  A
C1998      C1999   1.507       .  S
C1999      H2003   1.111       .  S
C1999      H2004   1.109       .  S
C1999      H2005   1.110       .  S
C2002      H2006   1.110       .  S
C2002      H2007   1.109       .  S
C2002      H2008   1.111       .  S
C2009      C2010   1.406       .  A
C2009      C2014   1.396       .  A
C2009      H2016   1.083       .  S
C2010      C2011   1.420       .  A
C2011      C2012   1.406       .  A
C2011      C2018   1.506       .  S
C2012      C2013   1.402       .  A
C2012      H2017   1.084       .  S
C2013      C2014   1.412       .  A
C2014      C2015   1.510       .  S
C2015      H2019   1.111       .  S
C2015      H2020   1.111       .  S
C2015      H2021   1.108       .  S
C2018      H2022   1.109       .  S
C2018      H2023   1.111       .  S
C2018      H2024   1.111       .  S
C2025      C2026   1.402       .  A
C2025      C2030   1.415       .  A
C2025      H2032   1.084       .  S
C2026      C2027   1.423       .  A
C2027      C2028   1.392       .  A
C2027      C2034   1.513       .  S
C2028      C2029   1.403       .  A
C2028      H2033   1.082       .  S
C2029      C2030   1.432       .  A
C2030      C2031   1.507       .  S
C2031      H2035   1.111       .  S
C2031      H2036   1.110       .  S
C2031      H2037   1.108       .  S
C2034      H2038   1.098       .  S
C2034      H2039   1.110       .  S
C2034      H2040   1.111       .  S
C2041      H2048   1.084   1_554  S
C2042      C2043   1.414       .  A
C2043      C2044   1.401       .  A
C2043      C2050   1.509       .  S
C2044      C2045   1.406       .  A
C2044      H2049   1.084       .  S
C2045      C2046   1.417       .  A
C2047      H2051   1.111       .  S
C2047      H2053   1.110       .  S
C2050      H2054   1.110       .  S
C2050      H2055   1.108       .  S
C2050      H2056   1.111       .  S
C2057      C2058   1.400       .  A
C2057      C2062   1.403       .  A
C2057      H2064   1.084       .  S
C2059      C2066   1.506       .  S
C2060      C2061   1.404       .  A
C2061      C2062   1.421       .  A
C2062      C2063   1.510       .  S
C2063      H2067   1.111       .  S
C2063      H2068   1.108       .  S
C2063      H2069   1.111       .  S
C2066      H2070   1.109       .  S
C2066      H2071   1.110       .  S
C2066      H2072   1.111       .  S
C2073      C2074   1.404       .  A
C2073      C2078   1.409       .  A
C2074      C2075   1.413       .  A
C2075      C2076   1.404       .  A
C2075      C2082   1.507       .  S
C2076      C2077   1.401       .  A
C2076      H2081   1.084       .  S
C2077      C2078   1.413       .  A
C2078      C2079   1.505       .  S
C2079      H2084   1.110       .  S
C2079      H2085   1.110       .  S
C2082      H2086   1.109       .  S
C2082      H2087   1.110       .  S
C2082      H2088   1.111       .  S
C2089      C2438   1.407       .  A
C2089      C2094   1.406       .  A
C2089      C2754   1.485       .  S
C2090      C2437   1.407       .  A
C2090      C2091   1.404       .  A
C2090      H2095   1.084       .  S
C2091      C2092   1.402       .  A
C2091      C2422   1.482       .  S
C2092      C2441   1.405       .  A
C2092      H2096   1.084       .  S
C2093      C2440   1.405       .  A
C2093      C2094   1.404       .  A
C2093      C2738   1.487       .  S
C2094      H2097   1.084       .  S
C2098      C2099   1.407       .  A
C2098      C2103   1.409       .  A
C2098      C2358   1.491       .  S
C2099      C2100   1.396       .  A
C2099      H2104   1.084       .  S
C2100      C2101   1.397       .  A
C2100      C2425   1.482       .  S
C2101      C2102   1.417       .  A
C2101      H2105   1.083       .  S
C2102      C2103   1.406       .  A
C2102      C2377   1.512       .  S
C2103      H2106   1.071       .  S
C2107      C2108   1.409       .  A
C2107      C2112   1.403       .  A
C2107      C2310   1.487       .  S
C2108      C2109   1.411       .  A
C2108      H2113   1.083       .  S
C2109      C2110   1.407       .  A
C2109      C2342   1.490       .  S
C2110      C2111   1.401       .  A
C2110      H2114   1.084       .  S
C2111      C2112   1.398       .  A
C2111      C2326   1.479       .  S
C2112      H2115   1.084       .  S
C2116      C2117   1.398       .  A
C2116      C2121   1.406       .  A
C2116      C2294   1.479       .  S
C2117      C2118   1.397       .  A
C2117      H2122   1.085       .  S
C2118      C2119   1.405       .  A
C2118      C2281   1.479       .  S
C2119      C2120   1.406       .  A
C2119      H2123   1.084       .  S
C2120      C2121   1.409       .  A
C2120      C2345   1.489       .  S
C2121      H2124   1.083       .  S
C2125      C2126   1.401       .  A
C2125      C2130   1.401       .  A
C2125      C2233   1.469       .  S
C2126      C2127   1.400       .  A
C2126      H2131   1.084       .  S
C2127      C2128   1.399       .  A
C2128      C2129   1.409       .  A
C2128      H2132   1.084       .  S
C2129      C2130   1.401       .  A
C2129      C2246   1.487       .  S
C2130      H2133   1.084       .  S
C2134      C2135   1.407       .  A
C2134      C2139   1.402       .  A
C2134      C2214   1.478       .  S
C2135      C2136   1.402       .  A
C2135      H2140   1.084       .  S
C2136      C2137   1.398       .  A
C2136      C2262   1.478       .  S
C2137      C2138   1.402       .  A
C2137      H2141   1.083       .  S
C2138      C2139   1.400       .  A
C2138      C2201   1.483       .  S
C2139      H2142   1.084       .  S
O2143      C2154   1.299       .  A
O2144      C2155   1.293       .  A
O2144     Eu2178   2.477       .  S
O2145      C2156   1.295       .  A
O2146      C2157   1.302       .  A
O2146     Eu2151   2.524       .  S
O2147      C2157   1.277       .  A
O2147     Eu2181   2.388       .  S
O2148      C2156   1.287       .  A
O2149      C2155   1.287       .  A
O2149     Eu2151   2.426       .  S
O2150      C2154   1.286       .  A
Eu2151     O2161   2.350       .  S
Eu2151     O2152   2.340       .  S
Eu2151     O2159   2.365       .  S
O2152     Eu2181   2.343       .  S
O2152     Eu2178   2.348       .  S
C2154      C2409   1.490       .  S
C2155      C2198   1.486       .  S
C2156      C2313   1.492       .  S
C2157      C2374   1.492       .  S
H2158      O2159   0.966       .  S
O2159     Eu2178   2.342       .  S
H2160      O2161   0.966       .  S
O2161     Eu2179   2.356       .  S
O2161     Eu2181   2.358       .  S
O2162      C2185   1.291       .  A
O2163     Eu2527   2.493   1_545  S
O2164     Eu2180   2.449       .  S
O2165      C2188   1.299       .  A
O2165     Eu2181   2.512       .  S
O2166      C2537   1.294       .  A
O2166     Eu2181   2.479   1_556  S
O2167     Eu2180   2.472       .  S
O2168     Eu2182   2.500       .  S
O2169      C2192   1.299   1_554  A
O2169     Eu2182   2.511       .  S
O2170      C2191   1.288       .  A
O2170     Eu2180   2.433       .  S
O2171     Eu2181   2.421       .  S
O2172      C2187   1.289       .  A
O2173      C2190   1.285   1_566  A
O2174      C2189   1.286       .  A
O2174     Eu2527   2.431       .  S
O2175      C2188   1.282       .  A
O2175     Eu2178   2.408       .  S
O2176      C2185   1.290       .  A
O2176     Eu2182   2.447       .  S
O2177      C2186   1.284       .  A
O2177     Eu2530   2.426       .  S
Eu2178     O2196   2.363   1_565  S
Eu2179     O2511   2.493   1_564  S
Eu2179     O2522   2.431   1_554  S
Eu2179     O2183   2.367       .  S
Eu2181     O2183   2.352       .  S
Eu2181     O2196   2.340   1_565  S
Eu2182     O2525   2.426   1_554  S
Eu2182     O2194   2.347       .  S
Eu2182     O2184   2.359       .  S
C2185      C2361   1.472       .  S
C2186      C2249   1.497       .  S
C2187      C2230   1.492       .  S
C2188      C2329   1.473       .  S
C2189      C2217   1.484       .  S
C2189      O2514   1.294       .  A
C2191      C2393   1.492       .  S
C2192      C2645   1.503       .  S
C2197      C2198   1.404       .  A
C2197      C2202   1.394       .  A
C2197      H2204   1.082       .  S
C2198      C2199   1.416       .  A
C2199      C2200   1.409       .  A
C2199      C2206   1.506       .  S
C2200      C2201   1.407       .  A
C2200      H2205   1.084       .  S
C2201      C2202   1.415       .  A
C2202      C2203   1.513       .  S
C2203      H2207   1.111   1_655  S
C2203      H2208   1.107       .  S
C2203      H2209   1.110       .  S
C2206      H2210   1.108       .  S
C2206      H2211   1.110       .  S
C2206      H2212   1.111       .  S
C2213      C2214   1.396       .  A
C2213      C2218   1.396       .  A
C2213      H2220   1.085       .  S
C2214      C2215   1.414       .  A
C2215      C2216   1.408       .  A
C2215      C2222   1.506       .  S
C2216      C2217   1.405       .  A
C2216      H2221   1.084       .  S
C2217      C2218   1.421       .  A
C2218      C2219   1.506       .  S
C2219      H2224   1.110       .  S
C2219      H2225   1.109   1_655  S
C2222      H2226   1.110       .  S
C2222      H2227   1.109       .  S
C2222      H2228   1.111       .  S
C2229      C2230   1.410       .  A
C2229      C2234   1.397       .  A
C2229      H2236   1.083       .  S
C2231      C2232   1.405       .  A
C2231      C2238   1.509       .  S
C2232      C2233   1.398       .  A
C2232      H2237   1.084       .  S
C2234      C2235   1.509       .  S
C2235      H2239   1.111       .  S
C2235      H2240   1.110       .  S
C2235      H2241   1.110       .  S
C2238      H2242   1.110       .  S
C2238      H2243   1.110       .  S
C2238      H2244   1.111       .  S
C2245      C2250   1.390       .  A
C2245      H2252   1.084       .  S
C2246      C2247   1.417       .  A
C2247      C2248   1.412       .  A
C2247      C2254   1.506       .  S
C2248      H2253   1.084       .  S
C2249      C2250   1.425       .  A
C2250      C2251   1.506       .  S
C2251      H2255   1.111       .  S
C2251      H2256   1.105       .  S
C2251      H2257   1.095       .  S
C2254      H2258   1.108       .  S
C2254      H2259   1.110       .  S
C2254      H2260   1.110       .  S
C2261      C2262   1.405       .  A
C2262      C2263   1.409       .  A
C2263      C2264   1.404       .  A
C2263      C2270   1.506       .  S
C2264      C2265   1.406       .  A
C2264      H2269   1.084       .  S
C2266      C2267   1.506       .  S
C2267      H2271   1.111       .  S
C2267      H2272   1.110       .  S
C2267      H2273   1.109       .  S
C2270      H2274   1.110       .  S
C2270      H2275   1.110       .  S
C2270      H2276   1.111       .  S
C2277      C2278   1.404       .  A
C2277      C2282   1.405       .  A
C2277      H2284   1.085       .  S
C2279      C2286   1.508       .  S
C2280      C2281   1.406       .  A
C2281      C2282   1.412       .  A
C2282      C2283   1.506       .  S
C2283      H2287   1.111       .  S
C2283      H2288   1.108       .  S
C2283      H2289   1.110       .  S
C2286      H2290   1.111       .  S
C2286      H2291   1.110       .  S
C2286      H2292   1.111       .  S
C2293      C2294   1.399       .  A
C2293      C2298   1.410       .  A
C2293      H2300   1.084       .  S
C2294      C2295   1.410       .  A
C2296      H2649   1.083       .  S
C2297      C2298   1.420       .  A
C2297      C2540   1.503       .  S
C2298      C2299   1.493       .  S
C2299      H2303   1.111       .  S
C2299      H2304   1.107       .  S
C2299      H2305   1.109       .  S
H2301      C2644   1.083   1_554  S
C2302      H2306   1.110       .  S
C2302      H2307   1.106       .  S
C2302      H2308   1.111       .  S
C2309      C2310   1.407       .  A
C2309      C2314   1.415       .  A
C2309      H2316   1.084       .  S
C2310      C2311   1.413       .  A
C2311      C2312   1.392       .  A
C2311      C2318   1.506       .  S
C2312      C2313   1.404       .  A
C2312      H2317   1.084       .  S
C2313      C2314   1.418       .  A
C2314      C2315   1.503       .  S
C2315      H2319   1.111       .  S
C2315      H2320   1.110       .  S
C2315      H2321   1.109       .  S
C2318      H2322   1.107       .  S
C2325      C2326   1.401       .  A
C2325      C2330   1.407       .  A
C2325      H2332   1.084       .  S
C2326      C2327   1.412       .  A
C2327      C2328   1.400       .  A
C2328      C2329   1.401       .  A
C2329      C2330   1.419       .  A
C2330      C2331   1.506       .  S
C2331      H2335   1.110       .  S
C2331      H2336   1.108       .  S
C2331      H2337   1.110       .  S
C2334      H2339   1.101       .  S
C2334      H2340   1.111       .  S
C2341      C2346   1.407       .  A
C2341      H2348   1.084       .  S
C2342      C2343   1.415       .  A
C2343      C2344   1.408       .  A
C2343      C2350   1.507       .  S
C2344      H2349   1.084       .  S
C2345      C2346   1.413       .  A
C2346      C2347   1.507       .  S
C2347      H2351   1.111       .  S
C2347      H2352   1.109       .  S
C2347      H2353   1.110       .  S
C2350      H2354   1.110       .  S
C2350      H2355   1.109       .  S
C2350      H2356   1.111       .  S
C2357      C2358   1.406       .  A
C2357      C2362   1.396       .  A
C2357      H2364   1.083       .  S
C2358      C2359   1.420       .  A
C2359      C2360   1.406       .  A
C2359      C2366   1.506       .  S
C2360      C2361   1.402       .  A
C2360      H2365   1.084       .  S
C2361      C2362   1.412       .  A
C2362      C2363   1.510       .  S
C2363      H2367   1.111       .  S
C2363      H2368   1.111       .  S
C2363      H2369   1.108       .  S
C2366      H2370   1.109       .  S
C2366      H2371   1.111       .  S
C2366      H2372   1.111       .  S
C2373      C2374   1.402       .  A
C2373      C2378   1.415       .  A
C2373      H2380   1.084       .  S
C2374      C2375   1.423       .  A
C2375      C2376   1.392       .  A
C2375      C2382   1.513       .  S
C2376      C2377   1.403       .  A
C2376      H2381   1.082       .  S
C2377      C2378   1.432       .  A
C2378      C2379   1.507       .  S
C2379      H2383   1.111       .  S
C2379      H2384   1.110       .  S
C2379      H2385   1.108       .  S
C2382      H2386   1.098       .  S
C2382      H2387   1.110       .  S
C2382      H2388   1.111       .  S
C2389      C2738   1.404       .  A
C2389      C2742   1.410       .  A
C2389      H2396   1.084       .  S
C2390      C2737   1.404       .  A
C2390      C2391   1.414       .  A
C2390      C2441   1.487       .  S
C2391      C2392   1.401       .  A
C2391      C2398   1.509       .  S
C2392      C2393   1.406       .  A
C2392      H2397   1.084       .  S
C2393      C2394   1.417       .  A
C2394      C2737   1.410       .  A
C2395      H2399   1.111       .  S
C2395      H2748   1.109   1_455  S
C2395      H2401   1.110       .  S
C2398      H2402   1.110       .  S
C2398      H2403   1.108       .  S
C2398      H2404   1.111       .  S
H2400      C2743   1.109   1_655  S
C2405      C2406   1.400       .  A
C2405      C2410   1.403       .  A
C2405      H2412   1.084       .  S
C2406      C2755   1.413   1_554  A
C2406      C2437   1.485       .  S
C2407      C2754   1.413       .  A
C2407      C2756   1.409       .  A
C2407      C2414   1.506       .  S
C2408      C2755   1.409       .  A
C2408      C2409   1.404   1_556  A
C2408      H2761   1.077       .  S
C2409      C2410   1.421       .  A
C2410      C2411   1.510       .  S
C2411      H2415   1.111       .  S
C2411      H2416   1.108       .  S
C2411      H2417   1.111       .  S
H2413      C2756   1.077       .  S
C2414      H2418   1.109       .  S
C2414      H2419   1.110       .  S
C2414      H2420   1.111       .  S
C2421      C2422   1.404       .  A
C2421      C2426   1.409       .  A
C2421      H2776   1.084   1_554  S
C2422      C2423   1.413       .  A
C2423      C2424   1.404       .  A
C2423      C2430   1.507       .  S
C2424      C2425   1.401       .  A
C2424      H2429   1.084       .  S
C2425      C2426   1.413       .  A
C2426      C2427   1.505       .  S
C2427      H2779   1.111   1_554  S
C2427      H2432   1.110       .  S
C2427      H2433   1.110       .  S
H2428      C2769   1.084       .  S
C2430      H2434   1.109       .  S
C2430      H2435   1.110       .  S
C2430      H2436   1.111       .  S
H2431      C2775   1.111       .  S
C2437      C2442   1.406       .  A
C2438      C2439   1.404       .  A
C2438      H2443   1.084       .  S
C2439      C2440   1.402       .  A
C2439      C2770   1.482       .  S
C2440      H2444   1.084       .  S
C2441      C2442   1.404       .  A
C2442      H2445   1.084       .  S
C2446      C2447   1.407       .  A
C2446      C2451   1.409       .  A
C2446      C2706   1.491       .  S
C2447      C2448   1.396       .  A
C2447      H2452   1.084       .  S
C2448      C2449   1.397       .  A
C2448      C2773   1.482       .  S
C2449      C2450   1.417       .  A
C2449      H2453   1.083       .  S
C2450      C2451   1.406       .  A
C2450      C2725   1.512       .  S
C2451      H2454   1.071       .  S
C2455      C2456   1.409       .  A
C2455      C2460   1.403       .  A
C2455      C2658   1.487       .  S
C2456      C2457   1.411       .  A
C2456      H2461   1.083       .  S
C2457      C2458   1.407       .  A
C2457      C2690   1.490       .  S
C2458      C2459   1.401       .  A
C2458      H2462   1.084       .  S
C2459      C2460   1.398       .  A
C2459      C2674   1.479       .  S
C2460      H2463   1.084       .  S
C2464      C2465   1.398       .  A
C2464      C2469   1.406       .  A
C2464      C2642   1.479       .  S
C2465      C2466   1.397       .  A
C2465      H2470   1.085       .  S
C2466      C2467   1.405       .  A
C2466      C2629   1.479       .  S
C2467      C2468   1.406       .  A
C2467      H2471   1.084       .  S
C2468      C2469   1.409       .  A
C2468      C2693   1.489       .  S
C2469      H2472   1.083       .  S
C2473      C2474   1.401       .  A
C2473      C2478   1.401       .  A
C2473      C2581   1.469       .  S
C2474      C2475   1.400       .  A
C2474      H2479   1.084       .  S
C2475      C2476   1.399       .  A
C2476      C2477   1.409       .  A
C2476      H2480   1.084       .  S
C2477      C2478   1.401       .  A
C2477      C2594   1.487       .  S
C2478      H2481   1.084       .  S
C2482      C2483   1.407       .  A
C2482      C2487   1.402       .  A
C2482      C2562   1.478       .  S
C2483      C2484   1.402       .  A
C2483      H2488   1.084       .  S
C2484      C2485   1.398       .  A
C2484      C2610   1.478       .  S
C2485      C2486   1.402       .  A
C2485      H2489   1.083       .  S
C2486      C2487   1.400       .  A
C2486      C2549   1.483       .  S
C2487      H2490   1.084       .  S
O2491      C2502   1.299       .  A
O2492      C2503   1.293       .  A
O2492     Eu2526   2.477       .  S
O2493      C2504   1.295       .  A
O2494      C2505   1.302       .  A
O2494     Eu2499   2.524       .  S
O2495      C2505   1.277       .  A
O2495     Eu2529   2.388       .  S
O2496      C2504   1.287       .  A
O2497      C2503   1.287       .  A
O2497     Eu2499   2.426       .  S
O2498      C2502   1.286       .  A
Eu2499     O2509   2.350       .  S
Eu2499     O2500   2.340       .  S
Eu2499     O2507   2.365       .  S
O2500     Eu2529   2.343       .  S
O2500     Eu2526   2.348       .  S
C2502      C2757   1.490       .  S
C2503      C2546   1.486       .  S
C2504      C2661   1.492       .  S
C2505      C2722   1.492       .  S
H2506      O2507   0.966       .  S
O2507     Eu2526   2.342       .  S
H2508      O2509   0.966       .  S
O2509     Eu2527   2.356       .  S
O2509     Eu2529   2.358       .  S
O2510      C2533   1.291       .  A
O2512     Eu2528   2.449       .  S
O2513      C2536   1.299       .  A
O2513     Eu2529   2.512       .  S
O2514     Eu2529   2.479       .  S
O2515     Eu2528   2.472       .  S
O2516     Eu2530   2.500       .  S
O2517      C2540   1.299       .  A
O2517     Eu2530   2.511       .  S
O2518      C2539   1.288       .  A
O2518     Eu2528   2.433       .  S
O2519     Eu2529   2.421       .  S
O2520      C2535   1.289       .  A
O2521      C2538   1.285   1_565  A
O2522      C2537   1.286       .  A
O2523      C2536   1.282       .  A
O2523     Eu2526   2.408       .  S
O2524      C2533   1.290       .  A
O2524     Eu2530   2.447       .  S
O2525      C2534   1.284       .  A
Eu2526     O2544   2.363   1_565  S
Eu2527     O2531   2.367       .  S
Eu2529     O2531   2.352       .  S
Eu2529     O2544   2.340   1_565  S
Eu2530     O2542   2.347       .  S
Eu2530     O2532   2.359       .  S
C2533      C2709   1.472       .  S
C2534      C2597   1.497       .  S
C2535      C2578   1.492       .  S
C2536      C2677   1.473       .  S
C2537      C2565   1.484       .  S
C2539      C2741   1.492       .  S
C2545      C2546   1.404       .  A
C2545      C2550   1.394       .  A
C2545      H2552   1.082       .  S
C2546      C2547   1.416       .  A
C2547      C2548   1.409       .  A
C2547      C2554   1.506       .  S
C2548      C2549   1.407       .  A
C2548      H2553   1.084       .  S
C2549      C2550   1.415       .  A
C2550      C2551   1.513       .  S
C2551      H2555   1.111   1_655  S
C2551      H2556   1.107       .  S
C2551      H2557   1.110       .  S
C2554      H2558   1.108       .  S
C2554      H2559   1.110       .  S
C2554      H2560   1.111       .  S
C2561      C2562   1.396       .  A
C2561      C2566   1.396       .  A
C2561      H2568   1.085       .  S
C2562      C2563   1.414       .  A
C2563      C2564   1.408       .  A
C2563      C2570   1.506       .  S
C2564      C2565   1.405       .  A
C2564      H2569   1.084       .  S
C2565      C2566   1.421       .  A
C2566      C2567   1.506       .  S
C2567      H2572   1.110       .  S
C2567      H2573   1.109   1_655  S
C2570      H2574   1.110       .  S
C2570      H2575   1.109       .  S
C2570      H2576   1.111       .  S
C2577      C2578   1.410       .  A
C2577      C2582   1.397       .  A
C2577      H2584   1.083       .  S
C2579      C2580   1.405       .  A
C2579      C2586   1.509       .  S
C2580      C2581   1.398       .  A
C2580      H2585   1.084       .  S
C2582      C2583   1.509       .  S
C2583      H2587   1.111       .  S
C2583      H2588   1.110       .  S
C2583      H2589   1.110       .  S
C2586      H2590   1.110       .  S
C2586      H2591   1.110       .  S
C2586      H2592   1.111       .  S
C2593      C2598   1.390       .  A
C2593      H2600   1.084       .  S
C2594      C2595   1.417       .  A
C2595      C2596   1.412       .  A
C2595      C2602   1.506       .  S
C2596      H2601   1.084       .  S
C2597      C2598   1.425       .  A
C2598      C2599   1.506       .  S
C2599      H2603   1.111       .  S
C2599      H2604   1.105       .  S
C2599      H2605   1.095       .  S
C2602      H2606   1.108       .  S
C2602      H2607   1.110       .  S
C2602      H2608   1.110       .  S
C2609      C2610   1.405       .  A
C2610      C2611   1.409       .  A
C2611      C2612   1.404       .  A
C2611      C2618   1.506       .  S
C2612      C2613   1.406       .  A
C2612      H2617   1.084       .  S
C2614      C2615   1.506       .  S
C2615      H2619   1.111       .  S
C2615      H2620   1.110       .  S
C2615      H2621   1.109       .  S
C2618      H2622   1.110       .  S
C2618      H2623   1.110       .  S
C2618      H2624   1.111       .  S
C2625      C2626   1.404       .  A
C2625      C2630   1.405       .  A
C2625      H2632   1.085       .  S
C2627      C2634   1.508       .  S
C2628      C2629   1.406       .  A
C2629      C2630   1.412       .  A
C2630      C2631   1.506       .  S
C2631      H2635   1.111       .  S
C2631      H2636   1.108       .  S
C2631      H2637   1.110       .  S
C2634      H2638   1.111       .  S
C2634      H2639   1.110       .  S
C2634      H2640   1.111       .  S
C2641      C2642   1.399       .  A
C2641      C2646   1.410       .  A
C2641      H2648   1.084       .  S
C2642      C2643   1.410       .  A
C2645      C2646   1.420       .  A
C2646      C2647   1.493       .  S
C2647      H2651   1.111       .  S
C2647      H2652   1.107       .  S
C2647      H2653   1.109       .  S
C2650      H2654   1.110       .  S
C2650      H2655   1.106       .  S
C2650      H2656   1.111       .  S
C2657      C2658   1.407       .  A
C2657      C2662   1.415       .  A
C2657      H2664   1.084       .  S
C2658      C2659   1.413       .  A
C2659      C2660   1.392       .  A
C2659      C2666   1.506       .  S
C2660      C2661   1.404       .  A
C2660      H2665   1.084       .  S
C2661      C2662   1.418       .  A
C2662      C2663   1.503       .  S
C2663      H2667   1.111       .  S
C2663      H2668   1.110       .  S
C2663      H2669   1.109       .  S
C2666      H2670   1.107       .  S
C2673      C2674   1.401       .  A
C2673      C2678   1.407       .  A
C2673      H2680   1.084       .  S
C2674      C2675   1.412       .  A
C2675      C2676   1.400       .  A
C2676      C2677   1.401       .  A
C2677      C2678   1.419       .  A
C2678      C2679   1.506       .  S
C2679      H2683   1.110       .  S
C2679      H2684   1.108       .  S
C2679      H2685   1.110       .  S
C2682      H2687   1.101       .  S
C2682      H2688   1.111       .  S
C2689      C2694   1.407       .  A
C2689      H2696   1.084       .  S
C2690      C2691   1.415       .  A
C2691      C2692   1.408       .  A
C2691      C2698   1.507       .  S
C2692      H2697   1.084       .  S
C2693      C2694   1.413       .  A
C2694      C2695   1.507       .  S
C2695      H2699   1.111       .  S
C2695      H2700   1.109       .  S
C2695      H2701   1.110       .  S
C2698      H2702   1.110       .  S
C2698      H2703   1.109       .  S
C2698      H2704   1.111       .  S
C2705      C2706   1.406       .  A
C2705      C2710   1.396       .  A
C2705      H2712   1.083       .  S
C2706      C2707   1.420       .  A
C2707      C2708   1.406       .  A
C2707      C2714   1.506       .  S
C2708      C2709   1.402       .  A
C2708      H2713   1.084       .  S
C2709      C2710   1.412       .  A
C2710      C2711   1.510       .  S
C2711      H2715   1.111       .  S
C2711      H2716   1.111       .  S
C2711      H2717   1.108       .  S
C2714      H2718   1.109       .  S
C2714      H2719   1.111       .  S
C2714      H2720   1.111       .  S
C2721      C2722   1.402       .  A
C2721      C2726   1.415       .  A
C2721      H2728   1.084       .  S
C2722      C2723   1.423       .  A
C2723      C2724   1.392       .  A
C2723      C2730   1.513       .  S
C2724      C2725   1.403       .  A
C2724      H2729   1.082       .  S
C2725      C2726   1.432       .  A
C2726      C2727   1.507       .  S
C2727      H2731   1.111       .  S
C2727      H2732   1.110       .  S
C2727      H2733   1.108       .  S
C2730      H2734   1.098       .  S
C2730      H2735   1.110       .  S
C2730      H2736   1.111       .  S
C2737      H2744   1.084   1_554  S
C2738      C2739   1.414       .  A
C2739      C2740   1.401       .  A
C2739      C2746   1.509       .  S
C2740      C2741   1.406       .  A
C2740      H2745   1.084       .  S
C2741      C2742   1.417       .  A
C2743      H2747   1.111       .  S
C2743      H2749   1.110       .  S
C2746      H2750   1.110       .  S
C2746      H2751   1.108       .  S
C2746      H2752   1.111       .  S
C2753      C2754   1.400       .  A
C2753      C2758   1.403       .  A
C2753      H2760   1.084       .  S
C2755      C2762   1.506       .  S
C2756      C2757   1.404       .  A
C2757      C2758   1.421       .  A
C2758      C2759   1.510       .  S
C2759      H2763   1.111       .  S
C2759      H2764   1.108       .  S
C2759      H2765   1.111       .  S
C2762      H2766   1.109       .  S
C2762      H2767   1.110       .  S
C2762      H2768   1.111       .  S
C2769      C2770   1.404       .  A
C2769      C2774   1.409       .  A
C2770      C2771   1.413       .  A
C2771      C2772   1.404       .  A
C2771      C2778   1.507       .  S
C2772      C2773   1.401       .  A
C2772      H2777   1.084       .  S
C2773      C2774   1.413       .  A
C2774      C2775   1.505       .  S
C2775      H2780   1.110       .  S
C2775      H2781   1.110       .  S
C2778      H2782   1.109       .  S
C2778      H2783   1.110       .  S
C2778      H2784   1.111       .  S
