geometry optimzed in LAMMPS
_audit_creation_date              2020-12-01 
_audit_creation_method            'lammps2cif' 
_symmetry_space_group_name_H-M    'P1' 
_symmetry_Int_Tables_number       1 
_symmetry_cell_setting            triclinic 
loop_ 
_symmetry_equiv_pos_as_xyz 
  x,y,z 
_cell_length_a                    29.06162295 
_cell_length_b                    29.107984834442153 
_cell_length_c                    44.110643843035426 
_cell_angle_alpha                 90.06237771154407 
_cell_angle_beta                  90.00809329068787 
_cell_angle_gamma                 90.73710901203027 
loop_ 
_atom_site_label 
_atom_site_type_symbol 
_atom_site_fract_x 
_atom_site_fract_y 
_atom_site_fract_z 
_atom_site_charge 
C1          C  0.73201139  0.32476454  0.86651180     0.80600
N2          N  0.75202774  0.30104540  0.84347419    -0.77700
C3          C  0.78415930  0.32235792  0.82578230     0.83000
N4          N  0.79574410  0.36686720  0.83116059    -0.77700
C5          C  0.77531850  0.39064620  0.85362984     0.85500
N6          N  0.74381482  0.36948036  0.87158044    -0.79400
C7          C  0.38653439  0.34899452  0.93707159     0.80600
N8          N  0.36241776  0.32214460  0.91725450    -0.77700
C9          C  0.32333074  0.33790756  0.90427972     0.83000
N10         N  0.30972391  0.38146745  0.91003828    -0.77700
C11         C  0.33380236  0.40864455  0.92950993     0.83100
N12         N  0.37204311  0.39221964  0.94329397    -0.79400
C13         C  0.31971881  0.75271229  0.83353829     0.80600
N14         N  0.36326269  0.76834056  0.83913856    -0.77700
C15         C  0.38036233  0.80499480  0.82367393     0.83000
N16         N  0.35371684  0.82626216  0.80304021    -0.77700
C17         C  0.31067308  0.81045788  0.79684628     0.83100
N18         N  0.29333948  0.77377627  0.81230915    -0.79400
C19         C  0.74415812  0.80193092  0.76279558     0.80600
N20         N  0.75703150  0.75947495  0.77197987    -0.77700
C21         C  0.79747130  0.74181883  0.76216060     0.83000
N22         N  0.82449191  0.76638534  0.74276745    -0.77700
C23         C  0.81115573  0.80838194  0.73308156     0.83100
N24         N  0.77137245  0.82622493  0.74351024    -0.79400
N25         N  0.48277649  0.87502401  0.83421746    -0.26900
N26         N  0.50145458  0.83545742  0.82650674    -0.34800
C27         C  0.46794356  0.80330756  0.82380893     0.01400
C28         C  0.42634368  0.82372772  0.83002274     0.07400
C29         C  0.43693444  0.86920201  0.83612723    -0.05700
H30         H  0.47320612  0.76849712  0.81604402     0.08100
H31         H  0.41291317  0.89640587  0.84080568     0.09300
Cu32       Cu  0.57046386  0.82826081  0.81560067     0.44200
Cu33       Cu  0.51913984  0.93636523  0.84003873     0.42000
Cu34       Cu  0.62670194  0.93838001  0.80200458     0.43900
N35         N  0.63530653  0.83555793  0.79637293    -0.34300
N36         N  0.65411639  0.87603250  0.79004964    -0.28600
C37         C  0.69505914  0.86984024  0.77678821    -0.04700
C38         C  0.70270424  0.82327581  0.77489727     0.07500
C39         C  0.66431712  0.80235452  0.78760463     0.01300
H40         H  0.71819391  0.89733028  0.76990595     0.09000
H41         H  0.65771662  0.76587356  0.78999189     0.08100
N42         N  0.60453074  0.99220789  0.82830354    -0.35800
N43         N  0.56513115  0.99137965  0.84321993    -0.28000
C44         C  0.56355521  0.02838589  0.86152106    -0.03200
C45         C  0.60377198  0.05360332  0.85756084     0.05400
C46         C  0.62906200  0.02958627  0.83655740     0.03500
H47         H  0.53644633  0.03496102  0.87770647     0.08600
H48         H  0.66401304  0.03689826  0.82940841     0.07400
N49         N  0.28004357  0.69157049  0.89939842    -0.26900
N50         N  0.28957525  0.65632472  0.88165404    -0.34800
C51         C  0.30167994  0.67238423  0.85407174     0.01400
C52         C  0.29874570  0.71981610  0.85458375     0.07400
C53         C  0.28544202  0.73067232  0.88368533    -0.05700
H54         H  0.31419437  0.65136923  0.83566425     0.08100
H55         H  0.28313407  0.76472520  0.89339174     0.09300
Cu56       Cu  0.29176454  0.58916605  0.89765243     0.44200
Cu57       Cu  0.26918517  0.68729954  0.94555082     0.42000
Cu58       Cu  0.30631783  0.58271478  0.97988147     0.43900
N59         N  0.30433199  0.52881382  0.92135355    -0.34300
N60         N  0.31201110  0.52700398  0.95090534    -0.28600
C61         C  0.32319513  0.48381452  0.95856504    -0.04700
C62         C  0.32143733  0.45706018  0.93273742     0.07500
C63         C  0.30928536  0.48652557  0.90959172     0.01300
H64         H  0.33161141  0.47271579  0.98127658     0.09000
H65         H  0.30615770  0.47823320  0.88575461     0.08100
N66         N  0.29427839  0.64223859  0.00427677    -0.35800
N67         N  0.27987288  0.68058824  0.99160355    -0.28000
C68         C  0.27751356  0.71360487  0.01286398    -0.03200
C69         C  0.29060964  0.69485437  0.04017876     0.05400
C70         C  0.30127227  0.64972661  0.03403056     0.03500
H71         H  0.26864305  0.74896826  0.00849202     0.08600
H72         H  0.31445345  0.62460100  0.04975249     0.07400
N73         N  0.66916446  0.29021861  0.93263526    -0.26900
N74         N  0.63518233  0.29336078  0.91298843    -0.34800
C75         C  0.65288137  0.30096259  0.88522231     0.01400
C76         C  0.70037645  0.30200873  0.88759013     0.07400
C77         C  0.70936282  0.29571373  0.91805288    -0.05700
H78         H  0.63270385  0.30887155  0.86532999     0.08100
H79         H  0.74249660  0.29849415  0.92914522     0.09300
Cu80       Cu  0.56744705  0.29556676  0.92708652     0.44200
Cu81       Cu  0.65819207  0.28759669  0.97867038     0.42000
Cu82       Cu  0.54640913  0.32329006  0.00769348     0.43900
N83         N  0.50437371  0.31291493  0.94512388    -0.34300
N84         N  0.49653568  0.32579495  0.97344858    -0.28600
C85         C  0.45252665  0.33980238  0.97554568    -0.04700
C86         C  0.43190863  0.33415718  0.94742090     0.07500
C87         C  0.46570591  0.31713673  0.92883717     0.01300
H88         H  0.43677631  0.35302006  0.99593760     0.09000
H89         H  0.46312294  0.31059745  0.90473825     0.08100
N90         N  0.60399847  0.31139479  0.03501997    -0.35800
N91         N  0.64391579  0.29801867  0.02383313    -0.28000
C92         C  0.67464420  0.29443089  0.04633421    -0.03200
C93         C  0.65323185  0.30540343  0.07310629     0.05400
C94         C  0.60850545  0.31636773  0.06532671     0.03500
H95         H  0.71034457  0.28566840  0.04314703     0.08600
H96         H  0.58158933  0.32779994  0.08039281     0.07400
N97         N  0.83810109  0.49661857  0.86355112    -0.26900
N98         N  0.80414770  0.51058009  0.84599786    -0.34800
C99         C  0.77380102  0.47572322  0.84233738     0.01400
C100        C  0.78901349  0.43844058  0.85874580     0.07400
C101        C  0.83016731  0.45268244  0.87148732    -0.05700
H102        H  0.74440087  0.47653837  0.82730290     0.08100
H103        H  0.85409085  0.43174527  0.88399746     0.09300
Cu104      Cu  0.80378003  0.57380859  0.82425047     0.44200
Cu105      Cu  0.89725129  0.53462206  0.87249789     0.42000
Cu106      Cu  0.91820271  0.62398852  0.81856814     0.43900
N107        N  0.81865223  0.63395638  0.80076046    -0.34300
N108        N  0.86100984  0.65025457  0.79733290    -0.28600
C109        C  0.85974725  0.68947241  0.78142031    -0.04700
C110        C  0.81440690  0.69875779  0.77486126     0.07500
C111        C  0.78911473  0.66305932  0.78755153     0.01300
H112        H  0.88939862  0.71121256  0.77679076     0.09000
H113        H  0.75205749  0.65898848  0.78769024     0.08100
N114        N  0.96413791  0.60779531  0.85251183    -0.35800
N115        N  0.95602254  0.57555236  0.87296103    -0.28000
C116        C  0.99004440  0.57643227  0.89363884    -0.03200
C117        C  0.02096092  0.61069037  0.88556921     0.05400
C118        C  0.00344417  0.63015963  0.85959927     0.03500
H119        H  0.99119001  0.55496526  0.91362925     0.08600
H120        H  0.01693102  0.65981184  0.84760367     0.07400
N121        N  0.82760028  0.01583207  0.65301885    -0.26900
N122        N  0.81355784  0.01940985  0.68144225    -0.34800
C123        C  0.81883738  0.97886699  0.69538908     0.01400
C124        C  0.83774153  0.94846973  0.67497378     0.07400
C125        C  0.84315480  0.97297756  0.64833850    -0.05700
H126        H  0.81066628  0.97237246  0.71894419     0.08100
H127        H  0.85650659  0.96041968  0.62703146     0.09300
Cu128      Cu  0.79101653  0.07959301  0.70123139     0.44200
Cu129      Cu  0.82268118  0.06897106  0.62182068     0.42000
Cu130      Cu  0.77007244  0.17298922  0.65038269     0.43900
N131        N  0.78414427  0.14684209  0.71563102    -0.34300
N132        N  0.77596017  0.18098625  0.69677949    -0.28600
C133        C  0.78001442  0.22091662  0.71184375    -0.04700
C134        C  0.79083468  0.21159208  0.74169194     0.07500
C135        C  0.79370955  0.16426639  0.74323999     0.01300
H136        H  0.77909504  0.25441405  0.70126107     0.09000
H137        H  0.80561134  0.14427377  0.76229078     0.08100
N138        N  0.78567431  0.16218167  0.60522814    -0.35800
N139        N  0.80590307  0.12483920  0.59486667    -0.28000
C140        C  0.81435576  0.13019649  0.56508098    -0.03200
C141        C  0.79844961  0.17270741  0.55647051     0.05400
C142        C  0.78077116  0.19225127  0.58237132     0.03500
H143        H  0.83177136  0.10544976  0.55097221     0.08600
H144        H  0.76700669  0.22640960  0.58473068     0.07400
C145        C  0.81325712  0.24444163  0.76217829     0.80600
N146        N  0.78948451  0.26353447  0.78551936    -0.77700
C147        C  0.80920412  0.29807472  0.80197247     0.83000
N148        N  0.85209275  0.31337547  0.79484857    -0.77700
C149        C  0.87611965  0.29395819  0.77208439     0.83100
N150        N  0.85660702  0.25961893  0.75555823    -0.79400
N151        N  0.33779079  0.00865362  0.74187771    -0.26900
N152        N  0.30223381  0.02252979  0.75799668    -0.34800
C153        C  0.27057248  0.98841641  0.75896063     0.01400
C154        C  0.28662487  0.95163626  0.74229294     0.07400
C155        C  0.32958778  0.96556037  0.73220721    -0.05700
H156        H  0.23977354  0.98901393  0.77272838     0.08100
H157        H  0.35458155  0.94458803  0.72065001     0.09300
Cu158      Cu  0.30169241  0.08386181  0.78212290     0.44200
Cu159      Cu  0.39900953  0.04518678  0.73757786     0.42000
Cu160      Cu  0.41429036  0.13775957  0.79078340     0.43900
N161        N  0.31436253  0.14136999  0.80895222    -0.34300
N162        N  0.35585678  0.15945219  0.81316508    -0.28600
C163        C  0.35259175  0.19637888  0.83131807    -0.04700
C164        C  0.30681256  0.20218164  0.83861067     0.07500
C165        C  0.28346497  0.16687613  0.82394601     0.01300
H166        H  0.38107594  0.21900394  0.83715836     0.09000
H167        H  0.24666101  0.16079055  0.82361663     0.08100
N168        N  0.46324014  0.12022542  0.75885653    -0.35800
N169        N  0.45747989  0.08648179  0.73907960    -0.28000
C170        C  0.49339958  0.08638891  0.71985799    -0.03200
C171        C  0.52309315  0.12160866  0.72811889     0.05400
C172        C  0.50289293  0.14262967  0.75270193     0.03500
H173        H  0.49654304  0.06373592  0.70052230     0.08600
H174        H  0.51489150  0.17327565  0.76431918     0.07400
N175        N  0.97872413  0.36341965  0.76386616    -0.26900
N176        N  0.99652047  0.32453211  0.77364275    -0.34800
C177        C  0.96306841  0.29216825  0.77485514     0.01400
C178        C  0.92238140  0.31151533  0.76532680     0.07400
C179        C  0.93347048  0.35681955  0.75897914    -0.05700
H180        H  0.96731022  0.25819037  0.78429427     0.08100
H181        H  0.90985399  0.38367525  0.75279025     0.09300
Cu182      Cu  0.06296871  0.31887065  0.79040254     0.44200
Cu183      Cu  0.01481364  0.42536917  0.76076971     0.42000
Cu184      Cu  0.11053586  0.43018934  0.81098964     0.43900
N185        N  0.12253655  0.32768810  0.81585760    -0.34300
N186        N  0.13765742  0.36855346  0.82477237    -0.28600
C187        C  0.17623616  0.36358785  0.84102555    -0.04700
C188        C  0.18632466  0.31744871  0.84220790     0.07500
C189        C  0.15172506  0.29550188  0.82593251     0.01300
H190        H  0.19683552  0.39179723  0.84986348     0.09000
H191        H  0.14827864  0.25906388  0.82146717     0.08100
N192        N  0.09544166  0.48260832  0.78137269    -0.35800
N193        N  0.06068717  0.48066930  0.76209612    -0.28000
C194        C  0.06419210  0.51646348  0.74289570    -0.03200
C195        C  0.10282928  0.54207515  0.75072515     0.05400
C196        C  0.12198583  0.51949781  0.77502808     0.03500
H197        H  0.04206313  0.52168665  0.72350717     0.08600
H198        H  0.15466293  0.52718396  0.78578266     0.07400
C199        C  0.22871694  0.29815094  0.85454091     0.80600
N200        N  0.25459267  0.32377478  0.87390880    -0.77700
C201        C  0.29616690  0.30898077  0.88343569     0.83000
N202        N  0.31268589  0.26866105  0.87265987    -0.77700
C203        C  0.28696231  0.24274564  0.85313070     0.83100
N204        N  0.24486387  0.25748439  0.84424121    -0.79400
N205        N  0.17386342  0.79411651  0.66630429    -0.26900
N206        N  0.14253021  0.78497503  0.68719124    -0.34800
C207        C  0.15996624  0.79541043  0.71467391     0.01400
C208        C  0.20427676  0.81210059  0.71061624     0.07400
C209        C  0.21180187  0.81119234  0.67974538    -0.05700
H210        H  0.14064270  0.79443226  0.73562970     0.08100
H211        H  0.24195271  0.82375256  0.66781490     0.09300
Cu212      Cu  0.07515075  0.76884773  0.67606788     0.44200
Cu213      Cu  0.16180891  0.78790140  0.62042742     0.42000
Cu214      Cu  0.04442969  0.79626901  0.59684580     0.43900
N215        N  0.01076772  0.78877017  0.66158571    -0.34300
N216        N  0.00033790  0.80199557  0.63373272    -0.28600
C217        C  0.95808756  0.82049525  0.63398111    -0.04700
C218        C  0.94108365  0.81771240  0.66318732     0.07500
C219        C  0.97518357  0.79738328  0.68001738     0.01300
H220        H  0.94132791  0.83534343  0.61447472     0.09000
H221        H  0.97547502  0.79226632  0.70431228     0.08100
N222        N  0.09838180  0.78794225  0.56650588    -0.35800
N223        N  0.14152724  0.78480654  0.57568519    -0.28000
C224        C  0.16918073  0.78163912  0.55146617    -0.03200
C225        C  0.14222820  0.78227516  0.52581535     0.05400
C226        C  0.09746754  0.78671045  0.53594860     0.03500
H227        H  0.20632248  0.78059579  0.55251045     0.08600
H228        H  0.06681201  0.79008457  0.52225086     0.07400
C229        C  0.23297786  0.83643985  0.73276500     0.80600
N230        N  0.24349723  0.88161556  0.72816672    -0.77700
C231        C  0.27316153  0.90367550  0.74708480     0.83000
N232        N  0.29361314  0.88016413  0.76964480    -0.77700
C233        C  0.28354014  0.83519217  0.77436622     0.83100
N234        N  0.25287862  0.81315871  0.75597598    -0.79400
C235        C  0.89910585  0.83768920  0.67549464     0.80600
N236        N  0.87563348  0.81479862  0.69750993    -0.77700
C237        C  0.83868137  0.83417683  0.71091344     0.83000
N238        N  0.82637164  0.87731664  0.70306515    -0.77700
C239        C  0.84985298  0.90066209  0.68130022     0.83100
N240        N  0.88601313  0.88059014  0.66717951    -0.79400
C241        C  0.13786373  0.74058119  0.26499987     0.80600
N242        N  0.09575816  0.72255441  0.25788517    -0.77700
C243        C  0.07980715  0.68466257  0.27255262     0.83000
N244        N  0.10590974  0.66501151  0.29416520    -0.77700
C245        C  0.14740891  0.68324761  0.30188565     0.83100
N246        N  0.16376523  0.72096203  0.28707866    -0.79400
C247        C  0.72833219  0.68420455  0.35090955     0.80600
N248        N  0.70213959  0.66088408  0.37133178    -0.77700
C249        C  0.66213030  0.67864478  0.38154842     0.83000
N250        N  0.64758866  0.71942924  0.37053773    -0.77700
C251        C  0.67356031  0.74310809  0.35010952     0.83100
N252        N  0.71415670  0.72558974  0.34041655    -0.79400
C253        C  0.72523980  0.16268883  0.25012238     0.80600
N254        N  0.71553385  0.11762632  0.24437069    -0.77700
C255        C  0.68424748  0.09471124  0.26164170     0.83000
N256        N  0.66167968  0.11719506  0.28380280    -0.77700
C257        C  0.67118543  0.16192527  0.28977446     0.83100
N258        N  0.70301294  0.18493341  0.27284883    -0.79400
C259        C  0.05890598  0.14877497  0.17053691     0.80600
N260        N  0.07213379  0.10558743  0.16294251    -0.77700
C261        C  0.11123435  0.08810362  0.17508645     0.83000
N262        N  0.13703410  0.11404591  0.19442775    -0.77700
C263        C  0.12444126  0.15752366  0.20137268     0.83100
N264        N  0.08490831  0.17430411  0.18989271    -0.79400
N265        N  0.17887014  0.80760337  0.20208834    -0.26900
N266        N  0.16267955  0.84077849  0.21934975    -0.34800
C267        C  0.14897139  0.82264788  0.24600508     0.01400
C268        C  0.15788557  0.77606561  0.24548294     0.07400
C269        C  0.17631093  0.76772100  0.21722977    -0.05700
H270        H  0.13147827  0.84142344  0.26366837     0.08100
H271        H  0.18398354  0.73453469  0.20751616     0.09300
Cu272      Cu  0.15478365  0.90722802  0.20341188     0.44200
Cu273      Cu  0.19463600  0.81564302  0.15685045     0.42000
Cu274      Cu  0.14972000  0.91776669  0.12089198     0.43900
N275        N  0.14118284  0.96784013  0.18055628    -0.34300
N276        N  0.13701391  0.97154512  0.15077449    -0.28600
C277        C  0.12516024  0.01496698  0.14393992    -0.04700
C278        C  0.12277666  0.03966447  0.17067896     0.07500
C279        C  0.13326817  0.00887317  0.19334194     0.01300
H280        H  0.11970867  0.02776779  0.12122179     0.09000
H281        H  0.13396591  0.01552147  0.21747941     0.08100
N282        N  0.16936432  0.85917505  0.09734166    -0.35800
N283        N  0.18669980  0.82253838  0.11064163    -0.28000
C284        C  0.19344873  0.78967338  0.08976568    -0.03200
C285        C  0.18014630  0.80656778  0.06201513     0.05400
C286        C  0.16474944  0.85050857  0.06749929     0.03500
H287        H  0.20501462  0.75530755  0.09472943     0.08600
H288        H  0.14972772  0.87379276  0.05127375     0.07400
N289        N  0.94883953  0.18137841  0.13828005    -0.26900
N290        N  0.94358772  0.19304960  0.16707506    -0.34800
C291        C  0.98250448  0.18438172  0.18218065     0.01400
C292        C  0.01347382  0.16559301  0.16221131     0.07400
C293        C  0.99116951  0.16378185  0.13455134    -0.05700
H294        H  0.98705883  0.18919647  0.20633163     0.08100
H295        H  0.00463311  0.15090585  0.11336078     0.09300
Cu296      Cu  0.88286040  0.21341557  0.18700430     0.44200
Cu297      Cu  0.89806799  0.18983425  0.10568017     0.42000
Cu298      Cu  0.78694280  0.21721103  0.13760644     0.43900
N299        N  0.81596201  0.20749842  0.20241160    -0.34300
N300        N  0.78050406  0.20855102  0.18375109    -0.28600
C301        C  0.74217785  0.19687979  0.19897921    -0.04700
C302        C  0.75393326  0.18850098  0.22875647     0.07500
C303        C  0.80109534  0.19507549  0.23016563     0.01300
H304        H  0.70873633  0.19169968  0.18865020     0.09000
H305        H  0.82332158  0.18780884  0.24919783     0.08100
N306        N  0.79953568  0.21238203  0.09174925    -0.35800
N307        N  0.83988386  0.20231275  0.07976172    -0.28000
C308        C  0.83517895  0.19913075  0.04945546    -0.03200
C309        C  0.78980906  0.20775494  0.04233750     0.05400
C310        C  0.76810873  0.21547886  0.06959022     0.03500
H311        H  0.86230601  0.18958945  0.03396774     0.08600
H312        H  0.73182730  0.22102138  0.07330860     0.07400
N313        N  0.61996760  0.99005445  0.25242765    -0.26900
N314        N  0.65661060  0.97444589  0.26667933    -0.34800
C315        C  0.68806048  0.00866750  0.26887155     0.01400
C316        C  0.67063674  0.04731619  0.25495553     0.07400
C317        C  0.62722002  0.03433744  0.24522430    -0.05700
H318        H  0.71977937  0.00654711  0.28161117     0.08100
H319        H  0.60145686  0.05643470  0.23550268     0.09300
Cu320      Cu  0.65931022  0.90988296  0.28667275     0.44200
Cu321      Cu  0.55879708  0.95381304  0.24694466     0.42000
Cu322      Cu  0.54622536  0.85602265  0.29484826     0.43900
N323        N  0.64738905  0.84881306  0.30995266    -0.34300
N324        N  0.60572166  0.83114836  0.31420593    -0.28600
C325        C  0.60900458  0.79224525  0.33030108    -0.04700
C326        C  0.65490439  0.78457354  0.33613706     0.07500
C327        C  0.67846215  0.82089780  0.32280363     0.01300
H328        H  0.58022181  0.76989506  0.33593215     0.09000
H329        H  0.71532969  0.82650222  0.32232521     0.08100
N330        N  0.49668548  0.87490948  0.26376198    -0.35800
N331        N  0.50154641  0.91087513  0.24575469    -0.28000
C332        C  0.46661267  0.91114015  0.22576821    -0.03200
C333        C  0.43847504  0.87361186  0.23162219     0.05400
C334        C  0.45861456  0.85116831  0.25567018     0.03500
H335        H  0.46356814  0.93519736  0.20721310     0.08600
H336        H  0.44817007  0.81845776  0.26525540     0.07400
N337        N  0.97998055  0.61073450  0.26543353    -0.26900
N338        N  0.96046849  0.65004250  0.27272016    -0.34800
C339        C  0.99276216  0.68358559  0.27305939     0.01400
C340        C  0.03458472  0.66452314  0.26573460     0.07400
C341        C  0.02530144  0.61823971  0.26142734    -0.05700
H342        H  0.98688858  0.71839909  0.28061212     0.08100
H343        H  0.05008458  0.59156644  0.25716852     0.09300
Cu344      Cu  0.89319666  0.65539918  0.28770761     0.44200
Cu345      Cu  0.94558026  0.54765765  0.26431229     0.42000
Cu346      Cu  0.84234496  0.54582945  0.30865771     0.43900
N347        N  0.83279626  0.64880797  0.31237402    -0.34300
N348        N  0.81586476  0.60867784  0.32131844    -0.28600
C349        C  0.77728139  0.61560461  0.33731674    -0.04700
C350        C  0.76923831  0.66226702  0.33823617     0.07500
C351        C  0.80498910  0.68239385  0.32213608     0.01300
H352        H  0.75558066  0.58848479  0.34644769     0.09000
H353        H  0.81034010  0.71863285  0.31774799     0.08100
N354        N  0.86339091  0.49063155  0.28276254    -0.35800
N355        N  0.90092330  0.49135787  0.26585114    -0.28000
C356        C  0.90134426  0.45324197  0.24852668    -0.03200
C357        C  0.86239692  0.42731584  0.25510412     0.05400
C358        C  0.83901246  0.45214570  0.27671587     0.03500
H359        H  0.92643364  0.44652162  0.23100364     0.08600
H360        H  0.80504168  0.44466031  0.28561741     0.07400
N361        N  0.46689500  0.12323543  0.34287111    -0.26900
N362        N  0.45058756  0.16263240  0.33273797    -0.34800
C363        C  0.48509374  0.19392250  0.33172942     0.01400
C364        C  0.52486090  0.17327330  0.34167566     0.07400
C365        C  0.51224565  0.12840840  0.34809357    -0.05700
H366        H  0.48204506  0.22821530  0.32256627     0.08100
H367        H  0.53473648  0.10105218  0.35510241     0.09300
Cu368      Cu  0.38429587  0.17111878  0.31617688     0.44200
Cu369      Cu  0.42884109  0.06242972  0.34723933     0.42000
Cu370      Cu  0.32912393  0.06162521  0.30155234     0.43900
N371        N  0.32309567  0.16380449  0.29223472    -0.34300
N372        N  0.30492092  0.12309647  0.28579824    -0.28600
C373        C  0.26634661  0.12853171  0.26967014    -0.04700
C374        C  0.25948674  0.17490424  0.26590691     0.07500
C375        C  0.29590603  0.19653622  0.28058652     0.01300
H376        H  0.24393460  0.10070157  0.26232550     0.09000
H377        H  0.30215273  0.23312783  0.28266114     0.08100
N378        N  0.34578869  0.00735226  0.32895773    -0.35800
N379        N  0.38234877  0.00740124  0.34673443    -0.28000
C380        C  0.38086176  0.96934380  0.36410941    -0.03200
C381        C  0.34161792  0.94442468  0.35648723     0.05400
C382        C  0.32007078  0.96961821  0.33436910     0.03500
H383        H  0.40533457  0.96148294  0.38178721     0.08600
H384        H  0.28691244  0.96242406  0.32412443     0.07400
C385        C  0.63304896  0.24071252  0.35041043     0.80600
N386        N  0.66005503  0.22069452  0.32912619    -0.77700
C387        C  0.64296733  0.18543259  0.31221375     0.83000
N388        N  0.59928503  0.17012662  0.31684846    -0.77700
C389        C  0.57195980  0.19055757  0.33753390     0.83100
N390        N  0.58891270  0.22578093  0.35451923    -0.79400
N391        N  0.64771854  0.47288147  0.46239489    -0.26900
N392        N  0.65369827  0.46732644  0.43288067    -0.34800
C393        C  0.64687443  0.50747513  0.41881515     0.01400
C394        C  0.63521414  0.53966176  0.44033318     0.07400
C395        C  0.63569658  0.51672800  0.46775594    -0.05700
H396        H  0.64868219  0.51245056  0.39453340     0.08100
H397        H  0.62872069  0.53094867  0.48992922     0.09300
Cu398      Cu  0.66657730  0.40545010  0.41171699     0.44200
Cu399      Cu  0.65825705  0.42093899  0.49384019     0.42000
Cu400      Cu  0.69181637  0.31239738  0.46044544     0.43900
N401        N  0.66574709  0.33804311  0.39704594    -0.34300
N402        N  0.67543069  0.30358105  0.41530546    -0.28600
C403        C  0.66791943  0.26378016  0.40061767    -0.04700
C404        C  0.65312853  0.27376681  0.37167069     0.07500
C405        C  0.65166014  0.32111314  0.37014283     0.01300
H406        H  0.67071720  0.23010395  0.41076626     0.09000
H407        H  0.63917278  0.34161292  0.35150120     0.08100
N408        N  0.69230601  0.32538715  0.50643291    -0.35800
N409        N  0.67884151  0.36432872  0.51888642    -0.28000
C410        C  0.67878001  0.35946307  0.54923381    -0.03200
C411        C  0.69333735  0.31563210  0.55594508     0.05400
C412        C  0.70131046  0.29488686  0.52839637     0.03500
H413        H  0.66713479  0.38520924  0.56509059     0.08600
H414        H  0.71035984  0.25941462  0.52448895     0.07400
N415        N  0.46114569  0.67783950  0.47103383    -0.26900
N416        N  0.45373076  0.68859374  0.44230197    -0.34800
C417        C  0.49235910  0.68175850  0.42633523     0.01400
C418        C  0.52547458  0.66520145  0.44570886     0.07400
C419        C  0.50458384  0.66269487  0.47384717    -0.05700
H420        H  0.49525088  0.68594443  0.40203364     0.08100
H421        H  0.51967405  0.65054788  0.49473081     0.09300
Cu422      Cu  0.39047573  0.70532540  0.42404254     0.44200
Cu423      Cu  0.41157574  0.68343410  0.50493407     0.42000
Cu424      Cu  0.29842551  0.71236535  0.47674103     0.43900
N425        N  0.32207247  0.70162177  0.41102233    -0.34300
N426        N  0.28812089  0.70415967  0.43080171    -0.28600
C427        C  0.24822618  0.69416069  0.41679467    -0.04700
C428        C  0.25736065  0.68540866  0.38663685     0.07500
C429        C  0.30459498  0.68997474  0.38376508     0.01300
H430        H  0.21542243  0.69035931  0.42818205     0.09000
H431        H  0.32502367  0.68192966  0.36400186     0.08100
N432        N  0.31366466  0.70445652  0.52209008    -0.35800
N433        N  0.35459120  0.69335649  0.53274674    -0.28000
C434        C  0.35130367  0.68739923  0.56297592    -0.03200
C435        C  0.30628817  0.69541720  0.57143431     0.05400
C436        C  0.28336728  0.70566033  0.54502924     0.03500
H437        H  0.37911789  0.67639021  0.57745037     0.08600
H438        H  0.24691016  0.71136410  0.54237638     0.07400
C439        C  0.57048950  0.64791271  0.43650054     0.80600
N440        N  0.59524970  0.67120592  0.41523893    -0.77700
C441        C  0.63452692  0.65324064  0.40392099     0.83000
N442        N  0.64782744  0.61097020  0.41294502    -0.77700
C443        C  0.62326666  0.58737532  0.43405491     0.83100
N444        N  0.58467249  0.60599349  0.44605966    -0.79400
N445        N  0.11963400  0.48868009  0.35946386    -0.26900
N446        N  0.15510103  0.47506630  0.34319398    -0.34800
C447        C  0.18710081  0.50883414  0.34274393     0.01400
C448        C  0.17142649  0.54532700  0.35983030     0.07400
C449        C  0.12824576  0.53142522  0.36969759    -0.05700
H450        H  0.21767543  0.50848546  0.32875145     0.08100
H451        H  0.10329551  0.55237773  0.38131110     0.09300
Cu452      Cu  0.15465544  0.41529667  0.31766148     0.44200
Cu453      Cu  0.05810799  0.45211628  0.36268159     0.42000
Cu454      Cu  0.03949984  0.37098108  0.30202179     0.43900
N455        N  0.14068900  0.35991559  0.28943522    -0.34300
N456        N  0.09860527  0.34568414  0.28246398    -0.28600
C457        C  0.10118983  0.30813242  0.26486614    -0.04700
C458        C  0.14706611  0.29788673  0.26087780     0.07500
C459        C  0.17119180  0.33132739  0.27677868     0.01300
H460        H  0.07181926  0.28765902  0.25766333     0.09000
H461        H  0.20806626  0.33365199  0.27995683     0.08100
N462        N  0.99291000  0.38109464  0.33671913    -0.35800
N463        N  0.00017381  0.41005757  0.35937468    -0.28000
C464        C  0.96700997  0.40385638  0.38027713    -0.03200
C465        C  0.93750019  0.36957825  0.37017008     0.05400
C466        C  0.95503232  0.35562280  0.34263615     0.03500
H467        H  0.96616628  0.42097888  0.40205258     0.08600
H468        H  0.94321870  0.32687911  0.32900262     0.07400
C469        C  0.22644023  0.66056174  0.36603862     0.80600
N470        N  0.20561448  0.68287059  0.34274483    -0.77700
C471        C  0.17391892  0.66017751  0.32546633     0.83000
N472        N  0.16344865  0.61570163  0.33154132    -0.77700
C473        C  0.18443649  0.59323832  0.35432611     0.83100
N474        N  0.21567717  0.61575142  0.37189331    -0.79400
C475        C  0.21901754  0.19529974  0.25184633     0.80600
N476        N  0.19249374  0.16928609  0.23304035    -0.77700
C477        C  0.15263247  0.18584442  0.22184112     0.83000
N478        N  0.13855911  0.22828369  0.23024485    -0.77700
C479        C  0.16492313  0.25456029  0.24907079     0.83100
N480        N  0.20531110  0.23805352  0.25976598    -0.79400
C481        C  0.21262598  0.80907011  0.44958683     0.17400
C482        C  0.19906128  0.81341466  0.41924475    -0.11700
C483        C  0.22883176  0.83437405  0.39826521    -0.12600
C484        C  0.27211297  0.85098456  0.40763840     0.18900
C485        C  0.28618908  0.84488664  0.43767841    -0.14600
C486        C  0.25658711  0.82395564  0.45854920    -0.12900
C487        C  0.29998316  0.87881774  0.38768177    -0.00100
C488        C  0.32115725  0.90671374  0.37285392    -0.32900
C489        C  0.18082599  0.79368080  0.47252260     0.01300
C490        C  0.15941900  0.78602564  0.49540052    -0.34600
H491        H  0.16506914  0.80219756  0.41209353     0.12300
H492        H  0.21744921  0.83922772  0.37511437     0.12200
H493        H  0.31933514  0.85793405  0.44525444     0.12000
H494        H  0.26732368  0.82098433  0.48198936     0.11000
C495        C  0.17723201  0.61831500  0.69104389     0.17400
C496        C  0.18513614  0.59392069  0.66421037    -0.11700
C497        C  0.21358211  0.61252676  0.64175666    -0.12600
C498        C  0.23451866  0.65565073  0.64595303     0.18900
C499        C  0.22666714  0.68026724  0.67277484    -0.14600
C500        C  0.19802925  0.66160704  0.69532688    -0.12900
C501        C  0.26331711  0.67418582  0.62225760    -0.00100
C502        C  0.28495615  0.68576028  0.60015880    -0.32900
C503        C  0.14880774  0.59762027  0.71417141     0.01300
C504        C  0.12633490  0.57498679  0.73179643    -0.34600
H505        H  0.16942599  0.56036990  0.66069525     0.12300
H506        H  0.21929789  0.59323466  0.62110158     0.12200
H507        H  0.24268458  0.71365429  0.67625285     0.12000
H508        H  0.19230681  0.68073833  0.71603758     0.11000
C509        C  0.65888328  0.23770862  0.62801476     0.17400
C510        C  0.67293878  0.23962897  0.65839205    -0.11700
C511        C  0.65078279  0.21197310  0.68004965    -0.12600
C512        C  0.61463803  0.18243142  0.67128998     0.18900
C513        C  0.60164021  0.17968285  0.64078502    -0.14600
C514        C  0.62371429  0.20718412  0.61923130    -0.12900
C515        C  0.58785098  0.15790967  0.69355048    -0.00100
C516        C  0.56046916  0.13975609  0.71034631    -0.32900
C517        C  0.67804666  0.26842907  0.60573829     0.01300
C518        C  0.68812792  0.29201135  0.58427061    -0.34600
H519        H  0.70007189  0.26318452  0.66541201     0.12300
H520        H  0.66092503  0.21454407  0.70363213     0.12200
H521        H  0.57353411  0.15724705  0.63379923     0.12000
H522        H  0.61251759  0.20553345  0.59581320     0.11000
C523        C  0.83096146  0.23939712  0.47824578     0.17400
C524        C  0.80182580  0.26955637  0.46291187    -0.11700
C525        C  0.81868739  0.29574807  0.43860318    -0.12600
C526        C  0.86474540  0.29176441  0.42963178     0.18900
C527        C  0.89348816  0.26089260  0.44460769    -0.14600
C528        C  0.87666775  0.23481983  0.46882951    -0.12900
C529        C  0.88389303  0.32079752  0.40632348    -0.00100
C530        C  0.90548685  0.34416755  0.38867188    -0.32900
C531        C  0.81517786  0.21482774  0.50462801     0.01300
C532        C  0.80571646  0.19501455  0.52782425    -0.34600
H533        H  0.76648651  0.27339572  0.47011454     0.12300
H534        H  0.79617972  0.31962090  0.42725261     0.12200
H535        H  0.92919541  0.25767538  0.43795121     0.12000
H536        H  0.89955207  0.21176441  0.48059736     0.11000
C537        C  0.15142067  0.72665392  0.98870570     0.17400
C538        C  0.14864667  0.74353657  0.95904367    -0.11700
C539        C  0.12862859  0.71650096  0.93622293    -0.12600
C540        C  0.11137233  0.67252034  0.94301801     0.18900
C541        C  0.11590360  0.65496443  0.97239979    -0.14600
C542        C  0.13593626  0.68195811  0.99518833    -0.12900
C543        C  0.08445739  0.64763068  0.92095417    -0.00100
C544        C  0.05743493  0.62919750  0.90400767    -0.32900
C545        C  0.16602785  0.75633300  0.01304403     0.01300
C546        C  0.17434762  0.78029744  0.03469996    -0.34600
H547        H  0.16033483  0.77812421  0.95382482     0.12300
H548        H  0.12496777  0.73054575  0.91362703     0.12200
H549        H  0.10233241  0.62116823  0.97796015     0.12000
H550        H  0.13774140  0.66865397  0.01808448     0.11000
C551        C  0.73229019  0.32223622  0.14828176     0.17400
C552        C  0.77511912  0.34209742  0.14119584    -0.11700
C553        C  0.80552381  0.35503595  0.16431111    -0.12600
C554        C  0.79342054  0.34806641  0.19470487     0.18900
C555        C  0.75137599  0.32645202  0.20181835    -0.14600
C556        C  0.72084571  0.31353787  0.17863069    -0.12900
C557        C  0.82139592  0.36853028  0.21820900    -0.00100
C558        C  0.84222802  0.39221024  0.23615477    -0.32900
C559        C  0.69963094  0.31346683  0.12429133     0.01300
C560        C  0.67561202  0.30907098  0.10212074    -0.34600
H561        H  0.78438185  0.34896407  0.11782531     0.12300
H562        H  0.83768272  0.37210874  0.15851727     0.12200
H563        H  0.74148012  0.32115185  0.22524496     0.12000
H564        H  0.68790116  0.29806608  0.18439596     0.11000
C565        C  0.35791404  0.81363316  0.16737773     0.17400
C566        C  0.34183185  0.76830886  0.17066010    -0.11700
C567        C  0.32412171  0.74444053  0.14559699    -0.12600
C568        C  0.32248236  0.76580242  0.11716907     0.18900
C569        C  0.33755421  0.81145982  0.11406356    -0.14600
C570        C  0.35526616  0.83529837  0.13909643    -0.12900
C571        C  0.30804116  0.74021998  0.09082746    -0.00100
C572        C  0.29864137  0.71917309  0.06805823    -0.32900
C573        C  0.38090708  0.83650043  0.19216275     0.01300
C574        C  0.40470309  0.85446546  0.21129239    -0.34600
H575        H  0.34412760  0.75106384  0.19235121     0.12300
H576        H  0.31278307  0.70906536  0.14821623     0.12200
H577        H  0.33666390  0.82822897  0.09215735     0.12000
H578        H  0.36802606  0.87016135  0.13622255     0.11000
C579        C  0.71730036  0.17585572  0.96649769     0.17400
C580        C  0.73055297  0.18293586  0.93629777    -0.11700
C581        C  0.70418878  0.16393551  0.91272163    -0.12600
C582        C  0.66464121  0.13769648  0.91933577     0.18900
C583        C  0.65101276  0.13147062  0.94950848    -0.14600
C584        C  0.67720387  0.15055654  0.97300029    -0.12900
C585        C  0.64027020  0.11357973  0.89565550    -0.00100
C586        C  0.62178555  0.08861449  0.87740463    -0.32900
C587        C  0.74576668  0.19189254  0.99109752     0.01300
C588        C  0.76748659  0.20115565  0.01360667    -0.34600
H589        H  0.76163430  0.20225686  0.93102561     0.12300
H590        H  0.71526829  0.16865749  0.88947103     0.12200
H591        H  0.62081235  0.11084974  0.95490715     0.12000
H592        H  0.66680955  0.14462669  0.99627661     0.11000
loop_ 
_geom_bond_atom_site_label_1 
_geom_bond_atom_site_label_2 
_geom_bond_distance 
_geom_bond_site_symmetry_2 
_ccdc_geom_bond_type 
C1            N2   1.363       .  A
C1            N6   1.360       .  A
C1           C76   1.461       .  S
N2            C3   1.361       .  A
C3            N4   1.355       .  A
C3          C147   1.464       .  S
N4            C5   1.350       .  A
C5            N6   1.353       .  A
C5          C100   1.459       .  S
C7            N8   1.360       .  A
C7           N12   1.360       .  A
C7           C86   1.466       .  S
N8            C9   1.357       .  A
C9           N10   1.357       .  A
C9          C201   1.469       .  S
N10          C11   1.355       .  A
C11          N12   1.359       .  A
C11          C62   1.466       .  S
C13          N14   1.362       .  A
C13          N18   1.362       .  A
C13          C52   1.462       .  S
N14          C15   1.356       .  A
C15          N16   1.351       .  A
C15          C28   1.464       .  S
N16          C17   1.355       .  A
C17          N18   1.359       .  A
C17         C233   1.463       .  S
C19          N20   1.358       .  A
C19          N24   1.355       .  A
C19          C38   1.463       .  S
N20          C21   1.359       .  A
C21          N22   1.359       .  A
C21         C110   1.464       .  S
N22          C23   1.357       .  A
C23          N24   1.354       .  A
C23         C237   1.465       .  S
N25          C29   1.343       .  A
N25          N26   1.324       .  A
N25         Cu33   2.079       .  S
N26          C27   1.347       .  A
N26         Cu32   2.076       .  S
C27          C28   1.381       .  A
C27          H30   1.082       .  S
C28          C29   1.381       .  A
C29          H31   1.082       .  S
Cu32         N35   2.075       .  S
Cu33         N43   2.077       .  S
Cu34         N36   2.060       .  S
Cu34         N42   2.059       .  S
N35          C39   1.347       .  A
N35          N36   1.322       .  A
N36          C37   1.340       .  A
C37          C38   1.379       .  A
C37          H40   1.082       .  S
C38          C39   1.383       .  A
C39          H41   1.082       .  S
N42          C46   1.343   1_565  A
N42          N43   1.321       .  A
N43          C44   1.347   1_565  A
C44          C45   1.383       .  A
C44          H47   1.082       .  S
C45          C46   1.378       .  A
C45         C586   1.436       .  S
C46          H48   1.082       .  S
N49          C53   1.341       .  A
N49          N50   1.322       .  A
N49         Cu57   2.064       .  S
N50          C51   1.349       .  A
N50         Cu56   2.081       .  S
C51          C52   1.385       .  A
C51          H54   1.082       .  S
C52          C53   1.378       .  A
C53          H55   1.082       .  S
Cu56         N59   2.082       .  S
Cu57         N67   2.065       .  S
Cu58         N60   2.072       .  S
Cu58         N66   2.072   1_556  S
N59          C63   1.345       .  A
N59          N60   1.324       .  A
N60          C61   1.346       .  A
C61          C62   1.380       .  A
C61          H64   1.082       .  S
C62          C63   1.383       .  A
C63          H65   1.082       .  S
N66          C70   1.345       .  A
N66          N67   1.322   1_554  A
N67          C68   1.344   1_556  A
C68          C69   1.379       .  A
C68          H71   1.082       .  S
C69          C70   1.380       .  A
C69         C572   1.436       .  S
C70          H72   1.082       .  S
N73          C77   1.342       .  A
N73          N74   1.318       .  A
N73         Cu81   2.057       .  S
N74          C75   1.346       .  A
N74         Cu80   2.066       .  S
C75          C76   1.384       .  A
C75          H78   1.082       .  S
C76          C77   1.382       .  A
C77          H79   1.082       .  S
Cu80         N83   2.067       .  S
Cu81         N91   2.058   1_556  S
Cu82         N84   2.095   1_554  S
Cu82         N90   2.095       .  S
N83          C87   1.341       .  A
N83          N84   1.325       .  A
N84          C85   1.351       .  A
C85          C86   1.386       .  A
C85          H88   1.082       .  S
C86          C87   1.376       .  A
C87          H89   1.082       .  S
N90          C94   1.351       .  A
N90          N91   1.324       .  A
N91          C92   1.340       .  A
C92          C93   1.374       .  A
C92          H95   1.081       .  S
C93          C94   1.386       .  A
C93         C560   1.439       .  S
C94          H96   1.082       .  S
N97         C101   1.343       .  A
N97          N98   1.323       .  A
N97        Cu105   2.070       .  S
N98          C99   1.345       .  A
N98        Cu104   2.077       .  S
C99         C100   1.382       .  A
C99         H102   1.082       .  S
C100        C101   1.380       .  A
C101        H103   1.082       .  S
Cu104       N107   2.076       .  S
Cu105       N115   2.070       .  S
Cu106       N108   2.064       .  S
Cu106       N114   2.065       .  S
N107        C111   1.347       .  A
N107        N108   1.322       .  A
N108        C109   1.342       .  A
C109        C110   1.379       .  A
C109        H112   1.082       .  S
C110        C111   1.384       .  A
C111        H113   1.082       .  S
N114        C118   1.344   1_655  A
N114        N115   1.321       .  A
N115        C116   1.345       .  A
C116        C117   1.381   1_655  A
C116        H119   1.082       .  S
C117        C118   1.379       .  A
C117        C544   1.435       .  S
C118        H120   1.082       .  S
N121        C125   1.348   1_545  A
N121        N122   1.323       .  A
N121       Cu129   2.078       .  S
N122        C123   1.342   1_545  A
N122       Cu128   2.070       .  S
C123        C124   1.381       .  A
C123        H126   1.082       .  S
C124        C239   1.467       .  S
C124        C125   1.383       .  A
C125        H127   1.082       .  S
Cu128       N131   2.069       .  S
Cu129       N139   2.079       .  S
Cu130       N132   2.066       .  S
Cu130       N138   2.067       .  S
N131        C135   1.346       .  A
N131        N132   1.320       .  A
N132        C133   1.342       .  A
C133        C134   1.382       .  A
C133        H136   1.082       .  S
C134        C145   1.462       .  S
C134        C135   1.383       .  A
C135        H137   1.082       .  S
N138        C142   1.345       .  A
N138        N139   1.323       .  A
N139        C140   1.346       .  A
C140        C141   1.380       .  A
C140        H143   1.082       .  S
C141        C142   1.378       .  A
C141        C532   1.436       .  S
C142        H144   1.081       .  S
C145        N146   1.362       .  A
C145        N150   1.361       .  A
N146        C147   1.360       .  A
C147        N148   1.355       .  A
N148        C149   1.351       .  A
C149        N150   1.355       .  A
C149        C178   1.463       .  S
N151        C155   1.343   1_545  A
N151        N152   1.322       .  A
N151       Cu159   2.070       .  S
N152        C153   1.346   1_545  A
N152       Cu158   2.078       .  S
C153        C154   1.384       .  A
C153        H156   1.082       .  S
C154        C231   1.461       .  S
C154        C155   1.382       .  A
C155        H157   1.082       .  S
Cu158       N161   2.078       .  S
Cu159       N169   2.070       .  S
Cu160       N162   2.070       .  S
Cu160       N168   2.070       .  S
N161        C165   1.346       .  A
N161        N162   1.323       .  A
N162        C163   1.344       .  A
C163        C164   1.381       .  A
C163        H166   1.082       .  S
C164        C203   1.467       .  S
C164        C165   1.384       .  A
C165        H167   1.082       .  S
N168        C172   1.345       .  A
N168        N169   1.322       .  A
N169        C170   1.345       .  A
C170        C171   1.380       .  A
C170        H173   1.082       .  S
C171        C172   1.379       .  A
C171        C516   1.435       .  S
C172        H174   1.082       .  S
N175        C179   1.344       .  A
N175        N176   1.323       .  A
N175       Cu183   2.079   1_655  S
N176        C177   1.346       .  A
N176       Cu182   2.076   1_655  S
C177        C178   1.382       .  A
C177        H180   1.082       .  S
C178        C179   1.382       .  A
C179        H181   1.082       .  S
Cu182       N185   2.076       .  S
Cu183       N193   2.078       .  S
Cu184       N186   2.061       .  S
Cu184       N192   2.061       .  S
N185        C189   1.348       .  A
N185        N186   1.322       .  A
N186        C187   1.340       .  A
C187        C188   1.379       .  A
C187        H190   1.082       .  S
C188        C199   1.465       .  S
C188        C189   1.385       .  A
C189        H191   1.082       .  S
N192        C196   1.344       .  A
N192        N193   1.321       .  A
N193        C194   1.346       .  A
C194        C195   1.383       .  A
C194        H197   1.082       .  S
C195        C196   1.379       .  A
C195        C504   1.438       .  S
C196        H198   1.082       .  S
C199        N200   1.355       .  A
C199        N204   1.357       .  A
N200        C201   1.355       .  A
C201        N202   1.359       .  A
N202        C203   1.362       .  A
C203        N204   1.360       .  A
N205        C209   1.341       .  A
N205        N206   1.320       .  A
N205       Cu213   2.061       .  S
N206        C207   1.347       .  A
N206       Cu212   2.067       .  S
C207        C208   1.382       .  A
C207        H210   1.082       .  S
C208        C229   1.461       .  S
C208        C209   1.379       .  A
C209        H211   1.082       .  S
Cu212       N215   2.067       .  S
Cu213       N223   2.061       .  S
Cu214       N216   2.079       .  S
Cu214       N222   2.078       .  S
N215        C219   1.342   1_455  A
N215        N216   1.324       .  A
N216        C217   1.347   1_455  A
C217        C218   1.382       .  A
C217        H220   1.082       .  S
C218        C235   1.462       .  S
C218        C219   1.378       .  A
C219        H221   1.082       .  S
N222        C226   1.349       .  A
N222        N223   1.322       .  A
N223        C224   1.341       .  A
C224        C225   1.376       .  A
C224        H227   1.081       .  S
C225        C226   1.383       .  A
C225        C490   1.435       .  S
C226        H228   1.082       .  S
C229        N230   1.362       .  A
C229        N234   1.361       .  A
N230        C231   1.355       .  A
C231        N232   1.350       .  A
N232        C233   1.354       .  A
C233        N234   1.359       .  A
C235        N236   1.357       .  A
C235        N240   1.361       .  A
N236        C237   1.355       .  A
C237        N238   1.355       .  A
N238        C239   1.356       .  A
C239        N240   1.360       .  A
C241        N242   1.362       .  A
C241        N246   1.361       .  A
C241        C268   1.461       .  S
N242        C243   1.356       .  A
C243        N244   1.350       .  A
C243        C340   1.463       .  S
N244        C245   1.355       .  A
C245        N246   1.359       .  A
C245        C471   1.463       .  S
C247        N248   1.356       .  A
C247        N252   1.360       .  A
C247        C350   1.467       .  S
N248        C249   1.356       .  A
C249        N250   1.356       .  A
C249        C441   1.467       .  S
N250        C251   1.358       .  A
C251        N252   1.360       .  A
C251        C326   1.466       .  S
C253        N254   1.362       .  A
C253        N258   1.361       .  A
C253        C302   1.461       .  S
N254        C255   1.356       .  A
C255        N256   1.351       .  A
C255        C316   1.460       .  S
N256        C257   1.353       .  A
C257        N258   1.359       .  A
C257        C387   1.461       .  S
C259        N260   1.361       .  A
C259        N264   1.355       .  A
C259        C292   1.461       .  S
N260        C261   1.361       .  A
C261        N262   1.358       .  A
C261        C278   1.466       .  S
N262        C263   1.357       .  A
C263        N264   1.353       .  A
C263        C477   1.465       .  S
N265        C269   1.341       .  A
N265        N266   1.321       .  A
N265       Cu273   2.060       .  S
N266        C267   1.348       .  A
N266       Cu272   2.074       .  S
C267        C268   1.384       .  A
C267        H270   1.082       .  S
C268        C269   1.379       .  A
C269        H271   1.082       .  S
Cu272       N275   2.075       .  S
Cu273       N283   2.062       .  S
Cu274       N276   2.082       .  S
Cu274       N282   2.082       .  S
N275        C279   1.343   1_565  A
N275        N276   1.324       .  A
N276        C277   1.349   1_565  A
C277        C278   1.383       .  A
C277        H280   1.082       .  S
C278        C279   1.380       .  A
C279        H281   1.082       .  S
N282        C286   1.346       .  A
N282        N283   1.323       .  A
N283        C284   1.343       .  A
C284        C285   1.377       .  A
C284        H287   1.082       .  S
C285        C286   1.382       .  A
C285        C546   1.435       .  S
C286        H288   1.082       .  S
N289        C293   1.349       .  A
N289        N290   1.324       .  A
N289       Cu297   2.077       .  S
N290        C291   1.339       .  A
N290       Cu296   2.065       .  S
C291        C292   1.377   1_655  A
C291        H294   1.082       .  S
C292        C293   1.382   1_455  A
C293        H295   1.082   1_655  S
Cu296       N299   2.065       .  S
Cu297       N307   2.077       .  S
Cu298       N300   2.060       .  S
Cu298       N306   2.061       .  S
N299        C303   1.347       .  A
N299        N300   1.319       .  A
N300        C301   1.341       .  A
C301        C302   1.380       .  A
C301        H304   1.082       .  S
C302        C303   1.383       .  A
C303        H305   1.082       .  S
N306        C310   1.342       .  A
N306        N307   1.323       .  A
N307        C308   1.347       .  A
C308        C309   1.382       .  A
C308        H311   1.082       .  S
C309        C310   1.377       .  A
C309        C588   1.435       .  S
C310        H312   1.081       .  S
N313        C317   1.342   1_565  A
N313        N314   1.322       .  A
N313       Cu321   2.069       .  S
N314        C315   1.347   1_565  A
N314       Cu320   2.079       .  S
C315        C316   1.384       .  A
C315        H318   1.082       .  S
C316        C317   1.381       .  A
C317        H319   1.082       .  S
Cu320       N323   2.079       .  S
Cu321       N331   2.069       .  S
Cu322       N324   2.068       .  S
Cu322       N330   2.068       .  S
N323        C327   1.348       .  A
N323        N324   1.323       .  A
N324        C325   1.342       .  A
C325        C326   1.380       .  A
C325        H328   1.082       .  S
C326        C327   1.384       .  A
C327        H329   1.082       .  S
N330        C334   1.345       .  A
N330        N331   1.321       .  A
N331        C332   1.345       .  A
C332        C333   1.381       .  A
C332        H335   1.082       .  S
C333        C334   1.380       .  A
C333        C574   1.436       .  S
C334        H336   1.082       .  S
N337        C341   1.344   1_655  A
N337        N338   1.323       .  A
N337       Cu345   2.080       .  S
N338        C339   1.346       .  A
N338       Cu344   2.072       .  S
C339        C340   1.381   1_655  A
C339        H342   1.082       .  S
C340        C341   1.383       .  A
C341        H343   1.082       .  S
Cu344       N347   2.072       .  S
Cu345       N355   2.078       .  S
Cu346       N348   2.070       .  S
Cu346       N354   2.069       .  S
N347        C351   1.347       .  A
N347        N348   1.322       .  A
N348        C349   1.342       .  A
C349        C350   1.382       .  A
C349        H352   1.082       .  S
C350        C351   1.383       .  A
C351        H353   1.082       .  S
N354        C358   1.344       .  A
N354        N355   1.321       .  A
N355        C356   1.347       .  A
C356        C357   1.383       .  A
C356        H359   1.082       .  S
C357        C358   1.380       .  A
C357        C558   1.438       .  S
C358        H360   1.082       .  S
N361        C365   1.344       .  A
N361        N362   1.325       .  A
N361       Cu369   2.084       .  S
N362        C363   1.347       .  A
N362       Cu368   2.078       .  S
C363        C364   1.381       .  A
C363        H366   1.082       .  S
C364        C389   1.464       .  S
C364        C365   1.381       .  A
C365        H367   1.082       .  S
Cu368       N371   2.077       .  S
Cu369       N379   2.082       .  S
Cu370       N372   2.053       .  S
Cu370       N378   2.053       .  S
N371        C375   1.348       .  A
N371        N372   1.322       .  A
N372        C373   1.339       .  A
C373        C374   1.377       .  A
C373        H376   1.082       .  S
C374        C475   1.462       .  S
C374        C375   1.385       .  A
C375        H377   1.082       .  S
N378        C382   1.342   1_545  A
N378        N379   1.320       .  A
N379        C380   1.348   1_545  A
C380        C381   1.385       .  A
C380        H383   1.082       .  S
C381        C382   1.377       .  A
C381        C488   1.437       .  S
C382        H384   1.082       .  S
C385        N386   1.359       .  A
C385        N390   1.361       .  A
C385        C404   1.459       .  S
N386        C387   1.357       .  A
C387        N388   1.356       .  A
N388        C389   1.352       .  A
C389        N390   1.357       .  A
N391        C395   1.348       .  A
N391        N392   1.323       .  A
N391       Cu399   2.078       .  S
N392        C393   1.341       .  A
N392       Cu398   2.066       .  S
C393        C394   1.378       .  A
C393        H396   1.082       .  S
C394        C443   1.463       .  S
C394        C395   1.382       .  A
C395        H397   1.082       .  S
Cu398       N401   2.065       .  S
Cu399       N409   2.079       .  S
Cu400       N402   2.062       .  S
Cu400       N408   2.063       .  S
N401        C405   1.346       .  A
N401        N402   1.320       .  A
N402        C403   1.342       .  A
C403        C404   1.380       .  A
C403        H406   1.082       .  S
C404        C405   1.381       .  A
C405        H407   1.082       .  S
N408        C412   1.343       .  A
N408        N409   1.323       .  A
N409        C410   1.346       .  A
C410        C411   1.382       .  A
C410        H413   1.082       .  S
C411        C412   1.377       .  A
C411        C518   1.434       .  S
C412        H414   1.082       .  S
N415        C419   1.348       .  A
N415        N416   1.324       .  A
N415       Cu423   2.084       .  S
N416        C417   1.342       .  A
N416       Cu422   2.071       .  S
C417        C418   1.379       .  A
C417        H420   1.082       .  S
C418        C439   1.465       .  S
C418        C419   1.383       .  A
C419        H421   1.082       .  S
Cu422       N425   2.071       .  S
Cu423       N433   2.084       .  S
Cu424       N426   2.062       .  S
Cu424       N432   2.063       .  S
N425        C429   1.346       .  A
N425        N426   1.320       .  A
N426        C427   1.342       .  A
C427        C428   1.381       .  A
C427        H430   1.082       .  S
C428        C469   1.462       .  S
C428        C429   1.383       .  A
C429        H431   1.082       .  S
N432        C436   1.342       .  A
N432        N433   1.323       .  A
N433        C434   1.348       .  A
C434        C435   1.383       .  A
C434        H437   1.082       .  S
C435        C436   1.377       .  A
C435        C502   1.437       .  S
C436        H438   1.081       .  S
C439        N440   1.359       .  A
C439        N444   1.360       .  A
N440        C441   1.357       .  A
C441        N442   1.355       .  A
N442        C443   1.355       .  A
C443        N444   1.359       .  A
N445        C449   1.344       .  A
N445        N446   1.321       .  A
N445       Cu453   2.074       .  S
N446        C447   1.345       .  A
N446       Cu452   2.071       .  S
C447        C448   1.384       .  A
C447        H450   1.082       .  S
C448        C473   1.461       .  S
C448        C449   1.384       .  A
C449        H451   1.082       .  S
Cu452       N455   2.072       .  S
Cu453       N463   2.074       .  S
Cu454       N456   2.066       .  S
Cu454       N462   2.067   1_455  S
N455        C459   1.345       .  A
N455        N456   1.322       .  A
N456        C457   1.343       .  A
C457        C458   1.381       .  A
C457        H460   1.082       .  S
C458        C479   1.465       .  S
C458        C459   1.383       .  A
C459        H461   1.082       .  S
N462        C466   1.345       .  A
N462        N463   1.322   1_655  A
N463        C464   1.345   1_455  A
C464        C465   1.381       .  A
C464        H467   1.082       .  S
C465        C466   1.380       .  A
C465        C530   1.436       .  S
C466        H468   1.082       .  S
C469        N470   1.362       .  A
C469        N474   1.362       .  A
N470        C471   1.360       .  A
C471        N472   1.353       .  A
N472        C473   1.350       .  A
C473        N474   1.356       .  A
C475        N476   1.356       .  A
C475        N480   1.357       .  A
N476        C477   1.354       .  A
C477        N478   1.357       .  A
N478        C479   1.358       .  A
C479        N480   1.359       .  A
C481        C482   1.402       .  A
C481        C486   1.401       .  A
C481        C489   1.438       .  S
C482        C483   1.402       .  A
C482        H491   1.083       .  S
C483        C484   1.404       .  A
C483        H492   1.083       .  S
C484        C485   1.399       .  A
C484        C487   1.440       .  S
C485        C486   1.395       .  A
C485        H493   1.084       .  S
C486        H494   1.084       .  S
C487        C488   1.206       .  T
C489        C490   1.205       .  T
C495        C496   1.400       .  A
C495        C500   1.403       .  A
C495        C503   1.440       .  S
C496        C497   1.396       .  A
C496        H505   1.084       .  S
C497        C498   1.400       .  A
C497        H506   1.084       .  S
C498        C499   1.403       .  A
C498        C501   1.440       .  S
C499        C500   1.403       .  A
C499        H507   1.083       .  S
C500        H508   1.083       .  S
C501        C502   1.206       .  T
C503        C504   1.206       .  T
C509        C510   1.402       .  A
C509        C514   1.400       .  A
C509        C517   1.437       .  S
C510        C511   1.401       .  A
C510        H519   1.083       .  S
C511        C512   1.403       .  A
C511        H520   1.083       .  S
C512        C513   1.399       .  A
C512        C515   1.438       .  S
C513        C514   1.395       .  A
C513        H521   1.084       .  S
C514        H522   1.084       .  S
C515        C516   1.205       .  T
C517        C518   1.204       .  T
C523        C524   1.402       .  A
C523        C528   1.400       .  A
C523        C531   1.439       .  S
C524        C525   1.401       .  A
C524        H533   1.082       .  S
C525        C526   1.402       .  A
C525        H534   1.083       .  S
C526        C527   1.401       .  A
C526        C529   1.439       .  S
C527        C528   1.396       .  A
C527        H535   1.084       .  S
C528        H536   1.084       .  S
C529        C530   1.205       .  T
C531        C532   1.205       .  T
C537        C538   1.401       .  A
C537        C542   1.401       .  A
C537        C545   1.438   1_556  S
C538        C539   1.399       .  A
C538        H547   1.083       .  S
C539        C540   1.402       .  A
C539        H548   1.083       .  S
C540        C541   1.400       .  A
C540        C543   1.438       .  S
C541        C542   1.398       .  A
C541        H549   1.084       .  S
C542        H550   1.084   1_556  S
C543        C544   1.205       .  T
C545        C546   1.205       .  T
C551        C552   1.401       .  A
C551        C556   1.402       .  A
C551        C559   1.442       .  S
C552        C553   1.397       .  A
C552        H561   1.084       .  S
C553        C554   1.400       .  A
C553        H562   1.084       .  S
C554        C555   1.403       .  A
C554        C557   1.441       .  S
C555        C556   1.402       .  A
C555        H563   1.083       .  S
C556        H564   1.083       .  S
C557        C558   1.207       .  T
C559        C560   1.207       .  T
C565        C566   1.402       .  A
C565        C570   1.401       .  A
C565        C573   1.439       .  S
C566        C567   1.400       .  A
C566        H575   1.083       .  S
C567        C568   1.401       .  A
C567        H576   1.083       .  S
C568        C569   1.401       .  A
C568        C571   1.439       .  S
C569        C570   1.398       .  A
C569        H577   1.084       .  S
C570        H578   1.084       .  S
C571        C572   1.205       .  T
C573        C574   1.206       .  T
C579        C580   1.401       .  A
C579        C584   1.400       .  A
C579        C587   1.438       .  S
C580        C581   1.401       .  A
C580        H589   1.083       .  S
C581        C582   1.403       .  A
C581        H590   1.083       .  S
C582        C583   1.400       .  A
C582        C585   1.439       .  S
C583        C584   1.396       .  A
C583        H591   1.084       .  S
C584        H592   1.084       .  S
C585        C586   1.206       .  T
C587        C588   1.205   1_556  T
