geometry optimzed in LAMMPS
_audit_creation_date              2020-11-30 
_audit_creation_method            'lammps2cif' 
_symmetry_space_group_name_H-M    'P1' 
_symmetry_Int_Tables_number       1 
_symmetry_cell_setting            triclinic 
loop_ 
_symmetry_equiv_pos_as_xyz 
  x,y,z 
_cell_length_a                    31.081069173805982 
_cell_length_b                    30.337539010568495 
_cell_length_c                    52.748205057198945 
_cell_angle_alpha                 89.17836576165357 
_cell_angle_beta                  90.05278771146479 
_cell_angle_gamma                 90.00494440021349 
loop_ 
_atom_site_label 
_atom_site_type_symbol 
_atom_site_fract_x 
_atom_site_fract_y 
_atom_site_fract_z 
_atom_site_charge 
O1          O  0.45524637  0.20242664  0.71022121    -0.80220
O2          O  0.04441575  0.29489823  0.70996655    -0.80250
O3          O  0.40794073  0.29073550  0.74080999    -0.80250
O4          O  0.09257310  0.20583392  0.74152647    -0.80200
O5          O  0.45486996  0.29438746  0.71006847    -0.80320
O6          O  0.04580817  0.20289975  0.71054865    -0.80240
O7          O  0.09160076  0.29157612  0.74065838    -0.80220
O8          O  0.40810740  0.20493662  0.74094771    -0.80260
C9          C  0.41737929  0.19570404  0.71814532     1.09470
C10         C  0.08205769  0.30214061  0.71787175     1.09350
C11         C  0.41713812  0.30104684  0.71800198     1.09490
C12         C  0.08379860  0.19701478  0.71865876     1.09370
O13         O  0.04229736  0.15385649  0.75840992    -0.80220
O14         O  0.45776790  0.34185269  0.75795986    -0.80300
O15         O  0.45446275  0.20090367  0.78937098    -0.80240
O16         O  0.04422448  0.29338353  0.78877957    -0.80220
O17         O  0.04172294  0.34218568  0.75798900    -0.80270
O18         O  0.45809086  0.15362268  0.75859126    -0.80230
O19         O  0.04530332  0.20121509  0.78921140    -0.80190
O20         O  0.45551562  0.29290697  0.78871186    -0.80260
Co21       Co  0.00030156  0.18405115  0.73460579     1.51530
Co22       Co  0.49971234  0.31243806  0.73422021     1.51690
Co23       Co  0.43731993  0.24739097  0.76479112     1.51570
Co24       Co  0.06264207  0.24800652  0.76489570     1.51470
O25         O  0.50001300  0.24787358  0.74961464    -1.42160
C26         C  0.05232707  0.16284490  0.78111622     1.09390
C27         C  0.44815375  0.33160802  0.78070016     1.09480
C28         C  0.44748545  0.16257981  0.78129012     1.09420
C29         C  0.05187574  0.33193899  0.78068569     1.09400
C30         C  0.38188327  0.10817406  0.83499784     0.03040
C31         C  0.41121685  0.13643724  0.82203853    -0.13110
C32         C  0.42014778  0.13088598  0.79601878     0.00540
C33         C  0.39736622  0.09848620  0.78271684    -0.11630
C34         C  0.36591486  0.07248566  0.79474762     0.03040
C35         C  0.36062259  0.07544308  0.82091940    -0.11050
H36         H  0.42590131  0.16379865  0.83167011     0.08630
H37         H  0.40134913  0.09618312  0.76237425     0.06160
H38         H  0.33845938  0.05270774  0.82992510     0.06010
O39         O  0.34287501  0.03942861  0.75646409    -0.80220
O40         O  0.15787981  0.45513797  0.75689897    -0.80250
O41         O  0.20566815  0.04327537  0.78768987    -0.80250
O42         O  0.29444457  0.45047023  0.78803570    -0.80200
O43         O  0.15844571  0.04094456  0.75694695    -0.80320
O44         O  0.34155990  0.45371818  0.75735264    -0.80240
O45         O  0.20482792  0.45147355  0.78769178    -0.80220
O46         O  0.29613198  0.04233764  0.78739146    -0.80260
C47         C  0.33411089  0.04822542  0.77932981     1.09470
C48         C  0.16706582  0.44490538  0.77971341     1.09350
C49         C  0.16783686  0.05024120  0.77974329     1.09490
C50         C  0.33208009  0.44323641  0.78015290     1.09370
O51         O  0.29400971  0.45208969  0.70919735    -0.80220
O52         O  0.20488541  0.04486260  0.70858420    -0.80300
O53         O  0.29273049  0.09147780  0.73953095    -0.80240
O54         O  0.20770288  0.40383963  0.73992426    -0.80220
O55         O  0.20534102  0.45271317  0.70911247    -0.80270
O56         O  0.29560955  0.04416847  0.70870073    -0.80230
O57         O  0.29161424  0.40323232  0.73995542    -0.80190
O58         O  0.20859391  0.09209714  0.73939000    -0.80260
Co59       Co  0.31274570  0.49735339  0.73306933     1.51530
Co60       Co  0.18744816  0.49838736  0.73305231     1.51690
Co61       Co  0.25071835  0.06145222  0.76333538     1.51570
Co62       Co  0.24968883  0.43313480  0.76368869     1.51470
O63         O  0.25015298  0.49766943  0.74829321    -1.42160
C64         C  0.30159735  0.41349744  0.71724114     1.09390
C65         C  0.19790895  0.08315939  0.71670134     1.09480
C66         C  0.30262729  0.08253032  0.71680856     1.09420
C67         C  0.19806833  0.41399588  0.71716882     1.09400
C68         C  0.12305880  0.37440865  0.83346241     0.03040
C69         C  0.14534287  0.40822380  0.82050873    -0.13110
C70         C  0.13652581  0.41795215  0.79498108     0.00540
C71         C  0.10274290  0.39560294  0.78288665    -0.11630
C72         C  0.08001288  0.36163383  0.79545559     0.03040
C73         C  0.09035620  0.35140687  0.82077440    -0.11050
H74         H  0.17065825  0.42610049  0.83001902     0.08630
H75         H  0.09675858  0.40188825  0.76292320     0.06160
H76         H  0.07440109  0.32400282  0.83021558     0.06010
C77         C  0.37788726  0.37202902  0.83389296     0.03040
C78         C  0.41188720  0.35140820  0.82112444    -0.13110
C79         C  0.42068916  0.36142498  0.79568539     0.00540
C80         C  0.39691764  0.39481675  0.78333966    -0.11630
C81         C  0.36231420  0.41568296  0.79549877     0.03040
C82         C  0.35301762  0.40402183  0.82086392    -0.11050
H83         H  0.43058448  0.32606153  0.83072278     0.08630
H84         H  0.40276532  0.40161553  0.76342030     0.06160
H85         H  0.32520408  0.41820520  0.83001540     0.06010
C86         C  0.11864299  0.11257908  0.83463966     0.03040
C87         C  0.08697422  0.13738164  0.82178302    -0.13110
C88         C  0.07954145  0.13145719  0.79584438     0.00540
C89         C  0.10370769  0.09958437  0.78291348    -0.11630
C90         C  0.13690665  0.07591226  0.79513765     0.03040
C91         C  0.14382754  0.08232023  0.82112278    -0.11050
H92         H  0.06945976  0.16269735  0.83173854     0.08630
H93         H  0.09926185  0.09603791  0.76267147     0.06160
H94         H  0.16940790  0.06447558  0.83073976     0.06010
C95         C  0.13137962  0.13666310  0.66326025     0.03040
C96         C  0.11040428  0.16971368  0.67713235    -0.13110
C97         C  0.11564899  0.17274461  0.70330813     0.00540
C98         C  0.14716075  0.14678924  0.71539633    -0.11630
C99         C  0.17031392  0.11469382  0.70206785     0.03040
C100        C  0.16145686  0.10912303  0.67606339    -0.11050
H101        H  0.08868528  0.19267311  0.66791597     0.08630
H102        H  0.15108326  0.14902528  0.73574940     0.06160
H103        H  0.17692467  0.08245607  0.66616552     0.06010
C104        C  0.12729549  0.37364367  0.66418121     0.03040
C105        C  0.10265080  0.34153207  0.67723649    -0.13110
C106        C  0.11215985  0.32983235  0.70256425     0.00540
C107        C  0.14675123  0.35081390  0.71469837    -0.11630
C108        C  0.17061699  0.38400783  0.70224655     0.03040
C109        C  0.16189635  0.39369396  0.67675164    -0.11050
H110        H  0.07489013  0.32715911  0.66808802     0.08630
H111        H  0.15260306  0.34416444  0.73463997     0.06160
H112        H  0.18124608  0.41827447  0.66699754     0.06010
C113        C  0.36772581  0.13403023  0.66309242     0.03040
C114        C  0.39257442  0.16461739  0.67666104    -0.13110
C115        C  0.38624583  0.17028669  0.70273551     0.00540
C116        C  0.35354507  0.14607303  0.71499953    -0.11630
C117        C  0.32952944  0.11410812  0.70204439     0.03040
C118        C  0.33675261  0.10844346  0.67606070    -0.11050
H119        H  0.41758117  0.18326564  0.66705047     0.08630
H120        H  0.34943975  0.14926818  0.73528465     0.06160
H121        H  0.31961861  0.08275134  0.66618953     0.06010
C122        C  0.37227904  0.37160182  0.66423028     0.03040
C123        C  0.33938848  0.39409245  0.67699093    -0.13110
C124        C  0.32953800  0.38385080  0.70236189     0.00540
C125        C  0.35263626  0.35006090  0.71485182    -0.11630
C126        C  0.38658485  0.32810795  0.70271248     0.03040
C127        C  0.39530905  0.33822505  0.67718575    -0.11050
H128        H  0.32294758  0.42122184  0.66755907     0.08630
H129        H  0.34679943  0.34365883  0.73481318     0.06160
H130        H  0.42097556  0.32095846  0.66764983     0.06010
C131        C  0.33047464  0.13535198  0.94004095     0.42370
N132        N  0.32136731  0.17483691  0.97316390     0.01260
C133        C  0.14019733  0.19439997  0.04805970    -0.06610
H134        H  0.11638618  0.21393494  0.94628920     0.06750
C135        C  0.20924003  0.34183968  0.94945314    -0.06970
Co136      Co  0.23980374  0.15301603  0.00103595     0.74180
N137        N  0.16608247  0.19315354  0.97250905    -0.26140
Co138      Co  0.17020781  0.24262105  0.99933190     0.74070
C139        C  0.17068333  0.32744803  0.93624912     0.42470
N140        N  0.30506663  0.30629395  0.97109571     0.00880
N141        N  0.17719956  0.29014207  0.97078116     0.00980
N142        N  0.18610794  0.13666814  0.04972535    -0.46990
H143        H  0.26799361  0.09631100  0.94847019     0.06740
N144        N  0.19288867  0.15940074  0.97282184     0.01270
N145        N  0.17671677  0.29174276  0.02643068     0.01010
C146        C  0.16997956  0.33081810  0.05979499     0.42610
N147        N  0.33111384  0.27196369  0.97123753    -0.25600
C148        C  0.28898706  0.12433011  0.05007190    -0.06520
N149        N  0.34728928  0.16851117  0.95364676    -0.46710
N150        N  0.15184240  0.29796442  0.04646657    -0.46930
C151        C  0.32800106  0.13854120  0.06300512     0.42390
N152        N  0.19198231  0.16085227  0.02883348     0.01260
N153        N  0.33133787  0.27338089  0.02715018    -0.25620
N154        N  0.28799474  0.14797661  0.97335843    -0.26110
N155        N  0.30460897  0.30717484  0.02658867     0.00900
H156        H  0.38055018  0.25301239  0.05390004     0.06790
H157        H  0.23219186  0.36906086  0.05111715     0.06820
N158        N  0.16582277  0.19507036  0.02772559    -0.26160
N159        N  0.21077378  0.31675484  0.97052182    -0.25780
N160        N  0.32065405  0.17616966  0.02856906     0.01260
C161        C  0.15520986  0.15095377  0.93920076     0.42660
C162        C  0.35518457  0.27370031  0.95010431    -0.07030
N163        N  0.21033050  0.31825174  0.02601718    -0.25770
H164        H  0.23274975  0.36625389  0.94373057     0.06810
N165        N  0.18808457  0.13384049  0.95287155    -0.47000
H166        H  0.37892816  0.24962918  0.94463015     0.06790
C167        C  0.34174635  0.31640823  0.06026449     0.42490
C168        C  0.29107324  0.12144571  0.95328093    -0.06520
Co169      Co  0.32742300  0.22398342  0.00003347     0.73820
N170        N  0.30982421  0.33183394  0.95076072    -0.46710
C171        C  0.15397373  0.15608707  0.06281605     0.42760
N172        N  0.34596188  0.17065003  0.04855839    -0.46700
Co173      Co  0.25782944  0.31330740  0.99855770     0.73890
C174        C  0.20859556  0.34447647  0.04617698    -0.07030
C175        C  0.14051867  0.19022051  0.95211687    -0.06590
N176        N  0.28702181  0.14960065  0.02904724    -0.26120
N177        N  0.15240512  0.29531875  0.95051931    -0.46880
H178        H  0.11593398  0.21867821  0.05231464     0.06770
C179        C  0.35643309  0.27655626  0.04780472    -0.07010
Cl180      Cl  0.24883400  0.23315549  0.99973364    -0.50010
C181        C  0.34072813  0.31341141  0.93653310     0.42520
H182        H  0.26558230  0.09977674  0.05575922     0.06730
N183        N  0.30931158  0.33328064  0.04627237    -0.46720
C184        C  0.12652624  0.37222025  0.16347021     0.03040
C185        C  0.14530241  0.40812960  0.17612263    -0.13110
C186        C  0.13634957  0.41562028  0.20186550     0.00540
C187        C  0.10597175  0.38939987  0.21417112    -0.11630
C188        C  0.08838563  0.35269307  0.20226269     0.03040
C189        C  0.09858172  0.34406856  0.17699311    -0.11050
H190        H  0.16818273  0.42921743  0.16635924     0.08630
H191        H  0.09998711  0.39432359  0.23418076     0.06160
H192        H  0.08574558  0.31482689  0.16816097     0.06010
C193        C  0.38471556  0.10796857  0.16598857     0.03040
C194        C  0.41280705  0.13930027  0.17630141    -0.13110
C195        C  0.42471348  0.13652573  0.20180638     0.00540
C196        C  0.40802855  0.10211726  0.21728694    -0.11630
C197        C  0.37807780  0.07216485  0.20777927     0.03040
C198        C  0.36739988  0.07470938  0.18186078    -0.11050
H199        H  0.42438296  0.16658388  0.16471756     0.08630
H200        H  0.41514380  0.10114957  0.23740325     0.06160
H201        H  0.34414331  0.05181476  0.17423409     0.06010
C202        C  0.37761049  0.37662647  0.16105667     0.03040
C203        C  0.35004825  0.40597124  0.17347612    -0.13110
C204        C  0.35811900  0.41767915  0.19870123     0.00540
C205        C  0.39380309  0.39919703  0.21151080    -0.11630
C206        C  0.42001274  0.36784925  0.19979743     0.03040
C207        C  0.41247205  0.35791610  0.17425021    -0.11050
H208        H  0.32210185  0.41904348  0.16363699     0.08630
H209        H  0.39858217  0.40582584  0.23145132     0.06160
H210        H  0.43193777  0.33318516  0.16505338     0.06010
O211        O  0.20240471  0.44457736  0.28903218    -0.80220
O212        O  0.29464271  0.05373364  0.27989930    -0.80250
O213        O  0.29268053  0.40624726  0.25913294    -0.80250
O214        O  0.21861816  0.08233136  0.26344529    -0.80200
O215        O  0.31620760  0.46204282  0.28332533    -0.80320
O216        O  0.20343591  0.03392687  0.29193934    -0.80240
O217        O  0.29221710  0.10631854  0.25043474    -0.80220
O218        O  0.20726816  0.39674913  0.25847428    -0.80260
C219        C  0.19712786  0.40597829  0.28121589     1.09470
C220        C  0.30328689  0.09364119  0.27300612     1.09350
C221        C  0.31144311  0.42094205  0.27902587     1.09490
C222        C  0.20224068  0.07326143  0.28438325     1.09370
O223        O  0.16603455  0.03750223  0.24045933    -0.80220
O224        O  0.33701409  0.45867250  0.23437660    -0.80300
O225        O  0.20375995  0.44620567  0.21000179    -0.80240
O226        O  0.31121262  0.03838353  0.21850329    -0.80220
O227        O  0.36192403  0.03452078  0.24808431    -0.80270
O228        O  0.15644586  0.45097694  0.24046593    -0.80230
O229        O  0.21957165  0.06290707  0.21534889    -0.80190
O230        O  0.28831751  0.44692596  0.20685412    -0.80260
Co231      Co  0.18625052  0.49181804  0.26522174     1.51530
Co232      Co  0.30771391  0.50468952  0.25549116     1.51690
Co233      Co  0.24831776  0.42801734  0.23396943     1.51570
Co234      Co  0.26243826  0.05189412  0.24258274     1.51470
O235        O  0.24538978  0.48830330  0.24948138    -1.42160
C236        C  0.17948679  0.05833664  0.22074642     1.09390
C237        C  0.32679801  0.44395505  0.21320165     1.09480
C238        C  0.16591378  0.44155419  0.21763010     1.09420
C239        C  0.35033844  0.04630354  0.22545281     1.09400
O240        O  0.08786233  0.28414250  0.26301363    -0.80220
O241        O  0.41549725  0.20859723  0.25759760    -0.80250
O242        O  0.45516281  0.30135005  0.28698928    -0.80250
O243        O  0.06068905  0.20554909  0.27932627    -0.80200
O244        O  0.40746662  0.29528837  0.25676700    -0.80320
O245        O  0.11129336  0.20753373  0.24976070    -0.80240
O246        O  0.46901848  0.18304829  0.28271182    -0.80220
O247        O  0.03904058  0.29818623  0.29000045    -0.80260
C248        C  0.07760316  0.29997951  0.28386819     1.09470
C249        C  0.42895903  0.18800124  0.27740948     1.09350
C250        C  0.41727064  0.30561435  0.27942272     1.09490
C251        C  0.09955234  0.19641438  0.27245464     1.09370
O252        O  0.04329498  0.18963048  0.21795883    -0.80220
O253        O  0.45287880  0.29942776  0.20806271    -0.80300
O254        O  0.04466673  0.33683674  0.23732321    -0.80240
O255        O  0.46711953  0.16246774  0.23477887    -0.80220
O256        O  0.45228160  0.21027271  0.20588262    -0.80270
O257        O  0.06827380  0.27997793  0.21405601    -0.80230
O258        O  0.04061408  0.13750494  0.24761616    -0.80190
O259        O  0.45879016  0.34842591  0.23788587    -0.80260
Co260      Co  0.05767910  0.23844838  0.24213370     1.51530
Co261      Co  0.43624196  0.25327714  0.23234375     1.51690
Co262      Co  0.99971205  0.31723420  0.26264811     1.51570
Co263      Co  0.01163414  0.19259087  0.25531121     1.51470
O264        O  0.99563472  0.25639777  0.24787033    -1.42160
C265        C  0.05163338  0.14977732  0.22498135     1.09390
C266        C  0.44745904  0.33820635  0.21547260     1.09480
C267        C  0.06443079  0.32124192  0.21802207     1.09420
C268        C  0.45081700  0.17115852  0.21375250     1.09400
C269        C  0.11762232  0.11511469  0.16797197     0.03040
C270        C  0.14981159  0.09090073  0.18061542    -0.13110
C271        C  0.14604015  0.08167081  0.20644520     0.00540
C272        C  0.10984565  0.09622112  0.21985168    -0.11630
C273        C  0.07909707  0.12294194  0.20830184     0.03040
C274        C  0.08285946  0.13227238  0.18206438    -0.11050
H275        H  0.17799154  0.07973941  0.17046632     0.08630
H276        H  0.10783979  0.09051038  0.24015755     0.06160
H277        H  0.05961841  0.15374810  0.17283485     0.06010
C278        C  0.13252924  0.13273787  0.33171959     0.03040
C279        C  0.16339322  0.10393193  0.32171821    -0.13110
C280        C  0.17556139  0.10741949  0.29632428     0.00540
C281        C  0.15815019  0.14153247  0.28090491    -0.11630
C282        C  0.12677629  0.17008681  0.29026677     0.03040
C283        C  0.11464292  0.16582099  0.31593090    -0.11050
H284        H  0.17750548  0.07825006  0.33352451     0.08630
H285        H  0.16599868  0.14330991  0.26090458     0.06160
H286        H  0.08928165  0.18654788  0.32326046     0.06010
C287        C  0.36909486  0.12948217  0.33004062     0.03040
C288        C  0.33508910  0.11073077  0.31601620    -0.13110
C289        C  0.33052186  0.12056466  0.28984602     0.00540
C290        C  0.36004354  0.14886626  0.27838886    -0.11630
C291        C  0.39575047  0.16465950  0.29180366     0.03040
C292        C  0.39989670  0.15558267  0.31762813    -0.11050
H293        H  0.31322316  0.08779961  0.32524423     0.08630
H294        H  0.35771486  0.15481158  0.25811256     0.06160
H295        H  0.42733247  0.16814343  0.32797815     0.06010
C296        C  0.12989618  0.36583351  0.33633559     0.03040
C297        C  0.16523915  0.38357828  0.32285360    -0.13110
C298        C  0.17111336  0.37521334  0.29698616     0.00540
C299        C  0.14444342  0.34446685  0.28525681    -0.11630
C300        C  0.10917518  0.32596998  0.29825316     0.02840
C301        C  0.10145927  0.33762159  0.32349549    -0.11050
H302        H  0.18721106  0.40599645  0.33199520     0.08630
H303        H  0.14840162  0.33848488  0.26518229     0.06160
H304        H  0.07234152  0.32604421  0.33260114     0.06010
C305        C  0.37205822  0.37119669  0.33440015     0.03040
C306        C  0.34080989  0.39575293  0.32081414    -0.13110
C307        C  0.33413200  0.38883575  0.29499374     0.00540
C308        C  0.35488604  0.35436381  0.28291152    -0.11630
C309        C  0.38722910  0.33084339  0.29521695     0.03040
C310        C  0.39627793  0.33973054  0.32087197    -0.11050
H311        H  0.32185670  0.42098103  0.32976560     0.08630
H312        H  0.34984304  0.34978288  0.26277326     0.06160
H313        H  0.42377806  0.32388264  0.32958064     0.06010
C314        C  0.08337481  0.10719573  0.55818225     0.42370
N315        N  0.07251618  0.06796818  0.52521239     0.01260
C316        C  0.39263431  0.05531127  0.44906962    -0.06610
H317        H  0.36534754  0.03501414  0.55062036     0.06750
C318        C  0.45575981  0.40417120  0.54791296    -0.06970
Co319      Co  0.49182789  0.09292320  0.49742203     0.74180
N320        N  0.41656709  0.05442125  0.52516233    -0.26140
Co321      Co  0.41974160  0.00516511  0.49817190     0.74070
C322        C  0.41780372  0.41961411  0.56122444     0.42470
N323        N  0.05246496  0.43690479  0.52662772     0.00880
N324        N  0.42508963  0.45700765  0.52672290     0.00980
N325        N  0.43963992  0.11214465  0.44864832    -0.46990
H326        H  0.02182798  0.14787411  0.55048790     0.06740
N327        N  0.44430541  0.08736381  0.52527197     0.01270
N328        N  0.42488109  0.45600110  0.47101215     0.01010
C329        C  0.41484943  0.41567039  0.43840720     0.42610
N330        N  0.07931911  0.47057885  0.52663036    -0.25600
C331        C  0.04286782  0.12194670  0.44901456    -0.06520
N332        N  0.09899539  0.07346734  0.54459928    -0.46710
N333        N  0.39904619  0.45013988  0.45137071    -0.46930
C334        C  0.08071708  0.10574681  0.43579023     0.42390
N335        N  0.44423995  0.08717942  0.46936178     0.01260
N336        N  0.07947792  0.46983618  0.47088432    -0.25620
N337        N  0.03992374  0.09583200  0.52520640    -0.26110
N338        N  0.05226608  0.43648862  0.47112670     0.00900
H339        H  0.13064251  0.48905534  0.44568436     0.06790
H340        H  0.47579148  0.37493191  0.44687523     0.06820
N341        N  0.41735823  0.05345950  0.46983229    -0.26160
N342        N  0.45785276  0.42932665  0.52690242    -0.25780
N343        N  0.07155543  0.06734780  0.46978608     0.01260
C344        C  0.40569695  0.09675318  0.55842435     0.42660
C345        C  0.10349095  0.46798507  0.54770019    -0.07030
N346        N  0.45724408  0.42789664  0.47148422    -0.25770
H347        H  0.47864678  0.37909069  0.55358227     0.06810
N348        N  0.43945504  0.11301318  0.54517421    -0.47000
H349        H  0.12773660  0.49144081  0.55333008     0.06790
C350        C  0.09049638  0.42662726  0.43778518     0.42490
C351        C  0.04405685  0.12213933  0.54529786    -0.06520
Co352      Co  0.07691479  0.01897272  0.49811294     0.73820
N353        N  0.05675798  0.41100087  0.54687208    -0.46710
C354        C  0.40728826  0.09414887  0.43513241     0.42760
N355        N  0.09647856  0.07163146  0.44959932    -0.46700
Co356      Co  0.00505666  0.43147649  0.49899444     0.73890
C357        C  0.45342581  0.40072691  0.45177030    -0.07030
C358        C  0.39039383  0.05799742  0.54521613    -0.06590
N359        N  0.03948160  0.09585560  0.46969273    -0.26120
N360        N  0.40034916  0.45246811  0.54706456    -0.46880
H361        H  0.36840684  0.03156342  0.44388154     0.06770
C362        C  0.10525758  0.46625353  0.45067679    -0.07010
Cl363      Cl  0.99837444  0.01222794  0.49816116    -0.50010
C364        C  0.08835365  0.42842568  0.56106056     0.42520
H365        H  0.02038343  0.14737762  0.44326491     0.06730
N366        N  0.05764266  0.40996154  0.45165880    -0.46720
C367        C  0.41112608  0.36127657  0.40333221    -0.21390
C368        C  0.40098314  0.40300625  0.41269941    -0.09430
C369        C  0.37930686  0.43312134  0.39685139     0.29420
C370        C  0.37156011  0.42317054  0.37152879    -0.21390
C371        C  0.38156914  0.38130553  0.36171500    -0.09450
C372        C  0.40033834  0.34987551  0.37847920     0.29430
F373        F  0.40733434  0.30767798  0.37142116    -0.19970
H374        H  0.42667346  0.33698221  0.41547039     0.17800
H375        H  0.35811720  0.44915294  0.35978031     0.17800
F376        F  0.36621790  0.47272513  0.40558055    -0.19960
C377        C  0.09059010  0.36801449  0.40505820    -0.21390
C378        C  0.10263071  0.41059946  0.41236409    -0.09430
C379        C  0.12446899  0.43772191  0.39479619     0.29420
C380        C  0.13220993  0.42322396  0.37025823    -0.21390
C381        C  0.12069600  0.38039637  0.36280383    -0.09450
C382        C  0.10016480  0.35262763  0.38080286     0.29430
F383        F  0.09012390  0.31026639  0.37539637    -0.19970
H384        H  0.07416845  0.34623934  0.41831124     0.17800
H385        H  0.14678356  0.44631166  0.35702803     0.17800
F386        F  0.13777488  0.47873057  0.40086797    -0.19960
C387        C  0.38221776  0.14508464  0.40063365    -0.21390
C388        C  0.39828746  0.10382347  0.40822506    -0.09430
C389        C  0.40426509  0.07099372  0.39002780     0.29420
C390        C  0.39235460  0.07864047  0.36478358    -0.21390
C391        C  0.37555004  0.11961378  0.35722819    -0.09450
C392        C  0.37119794  0.15311217  0.37522510     0.29430
F393        F  0.35665127  0.19362315  0.36810256    -0.19970
H394        H  0.37793615  0.17087664  0.41439362     0.17800
H395        H  0.39785162  0.05324992  0.35091360     0.17800
F396        F  0.42383521  0.03246968  0.39645567    -0.19960
C397        C  0.10974192  0.16270957  0.37383593    -0.21390
C398        C  0.11701543  0.12626621  0.35815833    -0.09430
C399        C  0.10937641  0.08353008  0.36801151     0.29420
C400        C  0.09731357  0.07756206  0.39325272    -0.21390
C401        C  0.09174782  0.11373492  0.40905166    -0.09450
C402        C  0.09676176  0.15653109  0.39907071     0.29430
F403        F  0.09054033  0.19214680  0.41390465    -0.19970
H404        H  0.11499072  0.19593696  0.36671871     0.17800
H405        H  0.09134668  0.04455786  0.40043846     0.17800
F406        F  0.11246726  0.04747701  0.35316224    -0.19960
C407        C  0.10586552  0.34742636  0.11994974    -0.21390
C408        C  0.13781213  0.36224797  0.13675390    -0.09430
C409        C  0.18041178  0.36618848  0.12791400     0.29420
C410        C  0.19018762  0.35718300  0.10269491    -0.21390
C411        C  0.15832260  0.34219926  0.08602246    -0.09450
C412        C  0.11606722  0.33690403  0.09493177     0.29430
F413        F  0.08447886  0.32232669  0.07936881    -0.19970
H414        H  0.07282881  0.34411376  0.12616133     0.17800
H415        H  0.22311547  0.36084577  0.09644778     0.17800
F416        F  0.21306828  0.37687434  0.14379315    -0.19960
C417        C  0.32887640  0.34115253  0.12968776    -0.21390
C418        C  0.36812635  0.36201176  0.13503372    -0.09430
C419        C  0.39914261  0.36648840  0.11577643     0.29420
C420        C  0.39075969  0.35073726  0.09147426    -0.21390
C421        C  0.35145691  0.33031954  0.08615550    -0.09450
C422        C  0.32067448  0.32510760  0.10542969     0.29430
F423        F  0.28326536  0.30349494  0.10089679    -0.19970
H424        H  0.30501593  0.33653251  0.14444836     0.17800
H425        H  0.41462457  0.35506276  0.07670573     0.17800
F426        F  0.43717010  0.38684267  0.12040697    -0.19960
C427        C  0.14470733  0.10188164  0.09835382    -0.21390
C428        C  0.14242445  0.14553091  0.08940468    -0.09430
C429        C  0.12998047  0.17892744  0.10623888     0.29420
C430        C  0.12025354  0.16858891  0.13150403    -0.21390
C431        C  0.12300124  0.12499376  0.14053479    -0.09450
C432        C  0.13481429  0.09154558  0.12361141     0.29430
F433        F  0.13681747  0.04881330  0.13152988    -0.19970
H434        H  0.15407871  0.07571308  0.08573705     0.17800
H435        H  0.11224824  0.19498315  0.14428941     0.17800
F436        F  0.12947721  0.22193009  0.09880896    -0.19960
C437        C  0.38606863  0.13031831  0.09504386    -0.21390
C438        C  0.34224398  0.12739838  0.08897286    -0.09430
C439        C  0.31254693  0.11635287  0.10815156     0.29420
C440        C  0.32667643  0.10915083  0.13303063    -0.21390
C441        C  0.37055062  0.11258054  0.13921014    -0.09450
C442        C  0.40025543  0.12260327  0.11984067     0.29430
F443        F  0.44305358  0.12470845  0.12482970    -0.19970
H444        H  0.40941516  0.13863946  0.08051638     0.17800
H445        H  0.30304744  0.10234468  0.14764668     0.17800
F446        F  0.26968808  0.11491738  0.10327795    -0.19960
C447        C  0.35187795  0.39510682  0.61999869    -0.21390
C448        C  0.38415531  0.38494469  0.63789636    -0.09430
C449        C  0.42760544  0.38844278  0.63046742     0.29420
C450        C  0.43814976  0.39945398  0.60544949    -0.21390
C451        C  0.40583002  0.40875243  0.58757956    -0.09450
C452        C  0.36259479  0.40748864  0.59514165     0.29430
F453        F  0.33070607  0.41675916  0.57830068    -0.19970
H454        H  0.31824472  0.39287890  0.62515389     0.17800
H455        H  0.47176524  0.40158538  0.60017147     0.17800
F456        F  0.45999820  0.38265471  0.64747993    -0.19960
C457        C  0.41970856  0.12279066  0.62762000    -0.21390
C458        C  0.37687004  0.12594637  0.63591270    -0.09430
C459        C  0.34339323  0.11980449  0.61824172     0.29420
C460        C  0.35287678  0.11059498  0.59292229    -0.21390
C461        C  0.39568677  0.10803785  0.58478794    -0.09450
C462        C  0.42898962  0.11381232  0.60234470     0.29430
F463        F  0.47043124  0.10785455  0.59535589    -0.19970
H464        H  0.44611231  0.12590022  0.64088514     0.17800
H465        H  0.32681629  0.10573051  0.57961352     0.17800
F466        F  0.30157319  0.12331843  0.62531056    -0.19960
C467        C  0.10238466  0.35706729  0.62000253    -0.21390
C468        C  0.11580895  0.38809924  0.63790708    -0.09430
C469        C  0.11853888  0.43288703  0.63034098     0.29420
C470        C  0.11052183  0.44553085  0.60521883    -0.21390
C471        C  0.09795736  0.41432131  0.58733947    -0.09450
C472        C  0.09296359  0.37007630  0.59505604     0.29430
F473        F  0.07998521  0.33918243  0.57833527    -0.19970
H474        H  0.09983002  0.32250383  0.62518422     0.17800
H475        H  0.11302068  0.48007908  0.59993436     0.17800
F476        F  0.12758009  0.46483751  0.64730663    -0.19960
C477        C  0.14985243  0.11274477  0.61870891    -0.21390
C478        C  0.11969235  0.12976496  0.63597303    -0.09430
C479        C  0.07802238  0.14000167  0.62675136     0.29420
C480        C  0.06821078  0.13598976  0.60112966    -0.21390
C481        C  0.09747839  0.11732626  0.58430393    -0.09450
C482        C  0.13858032  0.10552202  0.59332577     0.29430
F483        F  0.16804645  0.08745179  0.57759972    -0.19970
H484        H  0.18224986  0.10484063  0.62474347     0.17800
H485        H  0.03670397  0.14597254  0.59473079     0.17800
F486        F  0.04547378  0.15154795  0.64244806    -0.19960
C487        C  0.10335964  0.13331512  0.90489281    -0.21390
C488        C  0.14589479  0.13988244  0.91275497    -0.09430
C489        C  0.17928641  0.13798721  0.89494760     0.29420
C490        C  0.17034677  0.12826847  0.86968576    -0.21390
C491        C  0.12779439  0.12107374  0.86171804    -0.09450
C492        C  0.09425800  0.12379658  0.87957685     0.29430
F493        F  0.05280552  0.11666127  0.87263496    -0.19970
H494        H  0.07725635  0.13531762  0.91841005     0.17800
H495        H  0.19654761  0.12773775  0.85616670     0.17800
F496        F  0.22010609  0.14832812  0.90170372    -0.19960
C497        C  0.36871368  0.31203228  0.86667768    -0.21390
C498        C  0.36685065  0.35720104  0.86013822    -0.09430
C499        C  0.35554505  0.38747750  0.87897353     0.29420
C500        C  0.34706904  0.37278351  0.90373366    -0.21390
C501        C  0.35044169  0.32790808  0.91033291    -0.09450
C502        C  0.36093868  0.29747641  0.89150063     0.29430
F503        F  0.36221126  0.25355985  0.89675135    -0.19970
H504        H  0.37596108  0.28771854  0.85246391     0.17800
H505        H  0.33859809  0.39669454  0.91794390     0.17800
F506        F  0.35410322  0.43138344  0.87375727    -0.19960
C507        C  0.10375659  0.34987093  0.87761776    -0.21390
C508        C  0.13555600  0.36135120  0.85973258    -0.09430
C509        C  0.17915532  0.35966290  0.86715474     0.29420
C510        C  0.19018860  0.34916776  0.89216179    -0.21390
C511        C  0.15829866  0.33851746  0.91000577    -0.09450
C512        C  0.11502389  0.33790268  0.90243614     0.29430
F513        F  0.08355046  0.32697109  0.91920064    -0.19970
H514        H  0.07004170  0.35071145  0.87249582     0.17800
H515        H  0.22388040  0.34834117  0.89740698     0.17800
F516        F  0.21130527  0.36666144  0.85015634    -0.19960
C517        C  0.32905216  0.10106304  0.87119982    -0.21390
C518        C  0.37010394  0.11425574  0.86244604    -0.09430
C519        C  0.39877819  0.13237095  0.88032448     0.29420
C520        C  0.38574129  0.13861564  0.90550162    -0.21390
C521        C  0.34486608  0.12495690  0.91392702    -0.09450
C522        C  0.31738937  0.10440110  0.89660692     0.29430
F523        F  0.27873721  0.08793137  0.90381877    -0.19970
H524        H  0.30495342  0.08839384  0.85847146     0.17800
H525        H  0.40795588  0.15387247  0.91854711     0.17800
F526        F  0.43970785  0.14326880  0.87393117    -0.19960
O527        O  0.45524637  0.70242664  0.71022121    -0.80220
O528        O  0.04441575  0.79489823  0.70996655    -0.80250
O529        O  0.40794073  0.79073550  0.74080999    -0.80250
O530        O  0.09257310  0.70583392  0.74152647    -0.80200
O531        O  0.45486996  0.79438746  0.71006848    -0.80320
O532        O  0.04580817  0.70289975  0.71054865    -0.80240
O533        O  0.09160076  0.79157612  0.74065838    -0.80220
O534        O  0.40810740  0.70493662  0.74094771    -0.80260
C535        C  0.41737929  0.69570404  0.71814532     1.09470
C536        C  0.08205769  0.80214061  0.71787175     1.09350
C537        C  0.41713812  0.80104684  0.71800198     1.09490
C538        C  0.08379860  0.69701478  0.71865876     1.09370
O539        O  0.04229736  0.65385649  0.75840992    -0.80220
O540        O  0.45776790  0.84185269  0.75795986    -0.80300
O541        O  0.45446275  0.70090367  0.78937098    -0.80240
O542        O  0.04422448  0.79338354  0.78877957    -0.80220
O543        O  0.04172294  0.84218568  0.75798900    -0.80270
O544        O  0.45809086  0.65362268  0.75859126    -0.80230
O545        O  0.04530332  0.70121509  0.78921140    -0.80190
O546        O  0.45551562  0.79290697  0.78871186    -0.80260
Co547      Co  0.00030156  0.68405115  0.73460580     1.51530
Co548      Co  0.49971234  0.81243806  0.73422021     1.51690
Co549      Co  0.43731993  0.74739098  0.76479112     1.51570
Co550      Co  0.06264206  0.74800652  0.76489571     1.51470
O551        O  0.50001300  0.74787358  0.74961464    -1.42160
C552        C  0.05232707  0.66284490  0.78111623     1.09390
C553        C  0.44815375  0.83160802  0.78070017     1.09480
C554        C  0.44748545  0.66257981  0.78129012     1.09420
C555        C  0.05187574  0.83193899  0.78068570     1.09400
C556        C  0.38188326  0.60817406  0.83499784     0.03040
C557        C  0.41121685  0.63643724  0.82203854    -0.13110
C558        C  0.42014778  0.63088599  0.79601879     0.00540
C559        C  0.39736622  0.59848620  0.78271684    -0.11630
C560        C  0.36591485  0.57248566  0.79474762     0.03040
C561        C  0.36062259  0.57544308  0.82091940    -0.11050
H562        H  0.42590131  0.66379866  0.83167012     0.08630
H563        H  0.40134913  0.59618312  0.76237425     0.06160
H564        H  0.33845938  0.55270774  0.82992510     0.06010
O565        O  0.34287501  0.53942861  0.75646409    -0.80220
O566        O  0.15787981  0.95513797  0.75689897    -0.80250
O567        O  0.20566815  0.54327537  0.78768987    -0.80250
O568        O  0.29444457  0.95047023  0.78803570    -0.80200
O569        O  0.15844571  0.54094456  0.75694695    -0.80320
O570        O  0.34155990  0.95371818  0.75735264    -0.80240
O571        O  0.20482792  0.95147355  0.78769178    -0.80220
O572        O  0.29613198  0.54233764  0.78739146    -0.80260
C573        C  0.33411089  0.54822542  0.77932981     1.09470
C574        C  0.16706582  0.94490538  0.77971341     1.09350
C575        C  0.16783686  0.55024120  0.77974330     1.09490
C576        C  0.33208009  0.94323641  0.78015290     1.09370
O577        O  0.29400971  0.95208969  0.70919735    -0.80220
O578        O  0.20488541  0.54486260  0.70858420    -0.80300
O579        O  0.29273048  0.59147780  0.73953095    -0.80240
O580        O  0.20770288  0.90383963  0.73992425    -0.80220
O581        O  0.20534102  0.95271316  0.70911247    -0.80270
O582        O  0.29560955  0.54416847  0.70870073    -0.80230
O583        O  0.29161424  0.90323232  0.73995542    -0.80190
O584        O  0.20859391  0.59209714  0.73939000    -0.80260
Co585      Co  0.31274570  0.99735338  0.73306933     1.51530
Co586      Co  0.18744816  0.99838736  0.73305231     1.51690
Co587      Co  0.25071835  0.56145222  0.76333538     1.51570
Co588      Co  0.24968883  0.93313480  0.76368869     1.51470
O589        O  0.25015298  0.99766943  0.74829321    -1.42160
C590        C  0.30159735  0.91349744  0.71724114     1.09390
C591        C  0.19790895  0.58315940  0.71670134     1.09480
C592        C  0.30262729  0.58253032  0.71680856     1.09420
C593        C  0.19806833  0.91399588  0.71716882     1.09400
C594        C  0.12305879  0.87440865  0.83346241     0.03040
C595        C  0.14534287  0.90822380  0.82050873    -0.13110
C596        C  0.13652581  0.91795215  0.79498108     0.00540
C597        C  0.10274290  0.89560294  0.78288665    -0.11630
C598        C  0.08001287  0.86163383  0.79545559     0.03040
C599        C  0.09035619  0.85140687  0.82077440    -0.11050
H600        H  0.17065825  0.92610049  0.83001902     0.08630
H601        H  0.09675858  0.90188825  0.76292320     0.06160
H602        H  0.07440109  0.82400283  0.83021558     0.06010
C603        C  0.37788726  0.87202902  0.83389296     0.03040
C604        C  0.41188719  0.85140820  0.82112444    -0.13110
C605        C  0.42068916  0.86142498  0.79568540     0.00540
C606        C  0.39691764  0.89481675  0.78333966    -0.11630
C607        C  0.36231420  0.91568295  0.79549877     0.03040
C608        C  0.35301762  0.90402183  0.82086392    -0.11050
H609        H  0.43058448  0.82606153  0.83072278     0.08630
H610        H  0.40276533  0.90161553  0.76342030     0.06160
H611        H  0.32520407  0.91820519  0.83001540     0.06010
C612        C  0.11864298  0.61257908  0.83463967     0.03040
C613        C  0.08697422  0.63738164  0.82178302    -0.13110
C614        C  0.07954145  0.63145719  0.79584438     0.00540
C615        C  0.10370769  0.59958437  0.78291348    -0.11630
C616        C  0.13690665  0.57591226  0.79513766     0.03040
C617        C  0.14382753  0.58232023  0.82112278    -0.11050
H618        H  0.06945976  0.66269734  0.83173854     0.08630
H619        H  0.09926185  0.59603791  0.76267147     0.06160
H620        H  0.16940789  0.56447557  0.83073976     0.06010
C621        C  0.13137963  0.63666311  0.66326025     0.03040
C622        C  0.11040429  0.66971369  0.67713236    -0.13110
C623        C  0.11564899  0.67274461  0.70330813     0.00540
C624        C  0.14716075  0.64678924  0.71539633    -0.11630
C625        C  0.17031392  0.61469383  0.70206785     0.03040
C626        C  0.16145686  0.60912304  0.67606339    -0.11050
H627        H  0.08868528  0.69267312  0.66791598     0.08630
H628        H  0.15108325  0.64902528  0.73574940     0.06160
H629        H  0.17692468  0.58245608  0.66616552     0.06010
C630        C  0.12729548  0.87364366  0.66418121     0.03040
C631        C  0.10265080  0.84153206  0.67723649    -0.13110
C632        C  0.11215985  0.82983235  0.70256426     0.00540
C633        C  0.14675122  0.85081390  0.71469837    -0.11630
C634        C  0.17061698  0.88400783  0.70224655     0.03040
C635        C  0.16189635  0.89369395  0.67675164    -0.11050
H636        H  0.07489013  0.82715910  0.66808802     0.08630
H637        H  0.15260306  0.84416444  0.73463997     0.06160
H638        H  0.18124608  0.91827447  0.66699753     0.06010
C639        C  0.36772581  0.63403024  0.66309242     0.03040
C640        C  0.39257441  0.66461740  0.67666104    -0.13110
C641        C  0.38624583  0.67028669  0.70273551     0.00540
C642        C  0.35354507  0.64607303  0.71499954    -0.11630
C643        C  0.32952944  0.61410813  0.70204440     0.03040
C644        C  0.33675261  0.60844346  0.67606070    -0.11050
H645        H  0.41758116  0.68326565  0.66705048     0.08630
H646        H  0.34943975  0.64926818  0.73528465     0.06160
H647        H  0.31961861  0.58275135  0.66618953     0.06010
C648        C  0.37227905  0.87160182  0.66423028     0.03040
C649        C  0.33938848  0.89409245  0.67699093    -0.13110
C650        C  0.32953800  0.88385080  0.70236189     0.00540
C651        C  0.35263626  0.85006090  0.71485182    -0.11630
C652        C  0.38658486  0.82810795  0.70271248     0.03040
C653        C  0.39530905  0.83822505  0.67718575    -0.11050
H654        H  0.32294759  0.92122183  0.66755907     0.08630
H655        H  0.34679943  0.84365883  0.73481318     0.06160
H656        H  0.42097556  0.82095846  0.66764983     0.06010
C657        C  0.33047463  0.63535197  0.94004095     0.42370
N658        N  0.32136730  0.67483691  0.97316390     0.01260
C659        C  0.14019732  0.69439997  0.04805970    -0.06610
H660        H  0.11638617  0.71393493  0.94628921     0.06750
C661        C  0.20924003  0.84183967  0.94945314    -0.06970
Co662      Co  0.23980373  0.65301603  0.00103595     0.74180
N663        N  0.16608246  0.69315353  0.97250905    -0.26140
Co664      Co  0.17020780  0.74262105  0.99933190     0.74070
C665        C  0.17068332  0.82744803  0.93624912     0.42470
N666        N  0.30506662  0.80629394  0.97109571     0.00880
N667        N  0.17719956  0.79014207  0.97078116     0.00980
N668        N  0.18610793  0.63666814  0.04972535    -0.46990
H669        H  0.26799360  0.59631100  0.94847019     0.06740
N670        N  0.19288866  0.65940073  0.97282184     0.01270
N671        N  0.17671676  0.79174276  0.02643068     0.01010
C672        C  0.16997955  0.83081810  0.05979499     0.42610
N673        N  0.33111383  0.77196369  0.97123753    -0.25600
C674        C  0.28898705  0.62433010  0.05007190    -0.06520
N675        N  0.34728927  0.66851117  0.95364676    -0.46710
N676        N  0.15184239  0.79796442  0.04646657    -0.46930
C677        C  0.32800106  0.63854119  0.06300512     0.42390
N678        N  0.19198230  0.66085227  0.02883348     0.01260
N679        N  0.33133786  0.77338089  0.02715018    -0.25620
N680        N  0.28799473  0.64797661  0.97335843    -0.26110
N681        N  0.30460896  0.80717483  0.02658868     0.00900
H682        H  0.38055018  0.75301238  0.05390004     0.06790
H683        H  0.23219185  0.86906086  0.05111715     0.06820
N684        N  0.16582276  0.69507035  0.02772559    -0.26160
N685        N  0.21077377  0.81675484  0.97052182    -0.25780
N686        N  0.32065404  0.67616966  0.02856905     0.01260
C687        C  0.15520985  0.65095376  0.93920076     0.42660
C688        C  0.35518456  0.77370030  0.95010431    -0.07030
N689        N  0.21033050  0.81825173  0.02601717    -0.25770
H690        H  0.23274974  0.86625389  0.94373057     0.06810
N691        N  0.18808456  0.63384048  0.95287155    -0.47000
H692        H  0.37892815  0.74962917  0.94463015     0.06790
C693        C  0.34174634  0.81640822  0.06026449     0.42490
C694        C  0.29107323  0.62144571  0.95328093    -0.06520
Co695      Co  0.32742299  0.72398342  0.00003347     0.73820
N696        N  0.30982420  0.83183394  0.95076072    -0.46710
C697        C  0.15397372  0.65608707  0.06281605     0.42760
N698        N  0.34596188  0.67065002  0.04855839    -0.46700
Co699      Co  0.25782944  0.81330739  0.99855770     0.73890
C700        C  0.20859555  0.84447647  0.04617698    -0.07030
C701        C  0.14051866  0.69022050  0.95211687    -0.06590
N702        N  0.28702181  0.64960064  0.02904723    -0.26120
N703        N  0.15240511  0.79531875  0.95051931    -0.46880
H704        H  0.11593397  0.71867821  0.05231464     0.06770
C705        C  0.35643308  0.77655625  0.04780472    -0.07010
Cl706      Cl  0.24883399  0.73315549  0.99973364    -0.50010
C707        C  0.34072813  0.81341140  0.93653310     0.42520
H708        H  0.26558229  0.59977673  0.05575922     0.06730
N709        N  0.30931158  0.83328063  0.04627237    -0.46720
C710        C  0.12652623  0.87222025  0.16347021     0.03040
C711        C  0.14530241  0.90812960  0.17612263    -0.13110
C712        C  0.13634956  0.91562028  0.20186550     0.00540
C713        C  0.10597175  0.88939987  0.21417112    -0.11630
C714        C  0.08838562  0.85269307  0.20226268     0.03040
C715        C  0.09858171  0.84406855  0.17699311    -0.11050
H716        H  0.16818273  0.92921743  0.16635924     0.08630
H717        H  0.09998710  0.89432359  0.23418076     0.06160
H718        H  0.08574558  0.81482689  0.16816097     0.06010
C719        C  0.38471557  0.60796857  0.16598857     0.03040
C720        C  0.41280706  0.63930027  0.17630140    -0.13110
C721        C  0.42471349  0.63652573  0.20180638     0.00540
C722        C  0.40802856  0.60211726  0.21728694    -0.11630
C723        C  0.37807781  0.57216485  0.20777926     0.03040
C724        C  0.36739989  0.57470938  0.18186077    -0.11050
H725        H  0.42438297  0.66658387  0.16471755     0.08630
H726        H  0.41514380  0.60114958  0.23740324     0.06160
H727        H  0.34414332  0.55181475  0.17423409     0.06010
C728        C  0.37761049  0.87662647  0.16105667     0.03040
C729        C  0.35004824  0.90597123  0.17347612    -0.13110
C730        C  0.35811899  0.91767915  0.19870123     0.00540
C731        C  0.39380309  0.89919703  0.21151080    -0.11630
C732        C  0.42001273  0.86784925  0.19979743     0.03040
C733        C  0.41247204  0.85791610  0.17425021    -0.11050
H734        H  0.32210184  0.91904347  0.16363699     0.08630
H735        H  0.39858217  0.90582583  0.23145132     0.06160
H736        H  0.43193777  0.83318516  0.16505338     0.06010
O737        O  0.20240470  0.94457736  0.28903218    -0.80220
O738        O  0.29464271  0.55373364  0.27989930    -0.80250
O739        O  0.29268052  0.90624725  0.25913294    -0.80250
O740        O  0.21861816  0.58233136  0.26344529    -0.80200
O741        O  0.31620760  0.96204281  0.28332533    -0.80320
O742        O  0.20343592  0.53392687  0.29193934    -0.80240
O743        O  0.29221711  0.60631854  0.25043474    -0.80220
O744        O  0.20726815  0.89674912  0.25847428    -0.80260
C745        C  0.19712785  0.90597829  0.28121589     1.09470
C746        C  0.30328690  0.59364119  0.27300611     1.09350
C747        C  0.31144310  0.92094204  0.27902587     1.09490
C748        C  0.20224069  0.57326144  0.28438325     1.09370
O749        O  0.16603455  0.53750223  0.24045933    -0.80220
O750        O  0.33701408  0.95867250  0.23437660    -0.80300
O751        O  0.20375995  0.94620567  0.21000179    -0.80240
O752        O  0.31121263  0.53838353  0.21850329    -0.80220
O753        O  0.36192404  0.53452079  0.24808430    -0.80270
O754        O  0.15644586  0.95097693  0.24046593    -0.80230
O755        O  0.21957165  0.56290707  0.21534889    -0.80190
O756        O  0.28831751  0.94692596  0.20685412    -0.80260
Co757      Co  0.18625051  0.99181804  0.26522174     1.51530
Co758      Co  0.30771391  0.00468951  0.25549117     1.51690
Co759      Co  0.24831775  0.92801733  0.23396943     1.51570
Co760      Co  0.26243827  0.55189413  0.24258274     1.51470
O761        O  0.24538977  0.98830330  0.24948138    -1.42160
C762        C  0.17948679  0.55833665  0.22074642     1.09390
C763        C  0.32679801  0.94395505  0.21320165     1.09480
C764        C  0.16591378  0.94155419  0.21763010     1.09420
C765        C  0.35033844  0.54630354  0.22545281     1.09400
O766        O  0.08786233  0.78414250  0.26301363    -0.80220
O767        O  0.41549725  0.70859723  0.25759760    -0.80250
O768        O  0.45516281  0.80135005  0.28698928    -0.80250
O769        O  0.06068905  0.70554909  0.27932626    -0.80200
O770        O  0.40746663  0.79528837  0.25676700    -0.80320
O771        O  0.11129336  0.70753373  0.24976070    -0.80240
O772        O  0.46901848  0.68304829  0.28271182    -0.80220
O773        O  0.03904058  0.79818623  0.29000045    -0.80260
C774        C  0.07760316  0.79997950  0.28386819     1.09470
C775        C  0.42895903  0.68800124  0.27740948     1.09350
C776        C  0.41727064  0.80561435  0.27942271     1.09490
C777        C  0.09955234  0.69641438  0.27245463     1.09370
O778        O  0.04329498  0.68963047  0.21795883    -0.80220
O779        O  0.45287881  0.79942776  0.20806271    -0.80300
O780        O  0.04466672  0.83683673  0.23732321    -0.80240
O781        O  0.46711953  0.66246774  0.23477887    -0.80220
O782        O  0.45228161  0.71027271  0.20588262    -0.80270
O783        O  0.06827380  0.77997793  0.21405600    -0.80230
O784        O  0.04061408  0.63750494  0.24761616    -0.80190
O785        O  0.45879016  0.84842591  0.23788587    -0.80260
Co786      Co  0.05767909  0.73844837  0.24213370     1.51530
Co787      Co  0.43624196  0.75327714  0.23234375     1.51690
Co788      Co  0.99971205  0.81723420  0.26264811     1.51570
Co789      Co  0.01163414  0.69259087  0.25531121     1.51470
O790        O  0.99563472  0.75639777  0.24787033    -1.42160
C791        C  0.05163338  0.64977732  0.22498135     1.09390
C792        C  0.44745904  0.83820635  0.21547259     1.09480
C793        C  0.06443079  0.82124192  0.21802207     1.09420
C794        C  0.45081701  0.67115852  0.21375250     1.09400
C795        C  0.11762232  0.61511469  0.16797197     0.03040
C796        C  0.14981159  0.59090073  0.18061542    -0.13110
C797        C  0.14604015  0.58167081  0.20644520     0.00540
C798        C  0.10984565  0.59622112  0.21985168    -0.11630
C799        C  0.07909706  0.62294194  0.20830184     0.03040
C800        C  0.08285946  0.63227238  0.18206438    -0.11050
H801        H  0.17799155  0.57973942  0.17046632     0.08630
H802        H  0.10783980  0.59051038  0.24015755     0.06160
H803        H  0.05961841  0.65374809  0.17283485     0.06010
C804        C  0.13252924  0.63273787  0.33171958     0.03040
C805        C  0.16339323  0.60393193  0.32171820    -0.13110
C806        C  0.17556140  0.60741949  0.29632428     0.00540
C807        C  0.15815019  0.64153247  0.28090491    -0.11630
C808        C  0.12677629  0.67008681  0.29026677     0.03040
C809        C  0.11464292  0.66582098  0.31593089    -0.11050
H810        H  0.17750550  0.57825007  0.33352451     0.08630
H811        H  0.16599868  0.64330991  0.26090457     0.06160
H812        H  0.08928164  0.68654787  0.32326045     0.06010
C813        C  0.36909486  0.62948218  0.33004061     0.03040
C814        C  0.33508910  0.61073078  0.31601620    -0.13110
C815        C  0.33052186  0.62056466  0.28984602     0.00540
C816        C  0.36004354  0.64886626  0.27838886    -0.11630
C817        C  0.39575048  0.66465950  0.29180365     0.03040
C818        C  0.39989670  0.65558268  0.31762812    -0.11050
H819        H  0.31322316  0.58779962  0.32524423     0.08630
H820        H  0.35771486  0.65481158  0.25811256     0.06160
H821        H  0.42733247  0.66814344  0.32797815     0.06010
C822        C  0.12989620  0.86583347  0.33633559     0.03040
C823        C  0.16523916  0.88357826  0.32285360    -0.13110
C824        C  0.17111336  0.87521333  0.29698615     0.00540
C825        C  0.14444342  0.84446684  0.28525680    -0.11630
C826        C  0.10917518  0.82596996  0.29825316     0.02840
C827        C  0.10145929  0.83762155  0.32349549    -0.11050
H828        H  0.18721106  0.90599643  0.33199520     0.08630
H829        H  0.14840161  0.83848489  0.26518229     0.06160
H830        H  0.07234155  0.82604416  0.33260115     0.06010
C831        C  0.37205821  0.87119668  0.33440015     0.03040
C832        C  0.34080988  0.89575292  0.32081414    -0.13110
C833        C  0.33413200  0.88883574  0.29499374     0.00540
C834        C  0.35488604  0.85436380  0.28291152    -0.11630
C835        C  0.38722910  0.83084338  0.29521695     0.03040
C836        C  0.39627793  0.83973053  0.32087197    -0.11050
H837        H  0.32185670  0.92098101  0.32976560     0.08630
H838        H  0.34984304  0.84978287  0.26277326     0.06160
H839        H  0.42377805  0.82388263  0.32958064     0.06010
C840        C  0.08337482  0.60719576  0.55818225     0.42370
N841        N  0.07251619  0.56796821  0.52521239     0.01260
C842        C  0.39263431  0.55531129  0.44906962    -0.06610
H843        H  0.36534754  0.53501417  0.55062036     0.06750
C844        C  0.45575982  0.90417117  0.54791296    -0.06970
Co845      Co  0.49182788  0.59292322  0.49742203     0.74180
N846        N  0.41656709  0.55442128  0.52516233    -0.26140
Co847      Co  0.41974159  0.50516514  0.49817190     0.74070
C848        C  0.41780373  0.91961408  0.56122444     0.42470
N849        N  0.05246496  0.93690476  0.52662771     0.00880
N850        N  0.42508965  0.95700762  0.52672290     0.00980
N851        N  0.43963992  0.61214467  0.44864832    -0.46990
H852        H  0.02182799  0.64787414  0.55048790     0.06740
N853        N  0.44430541  0.58736384  0.52527197     0.01270
N854        N  0.42488110  0.95600108  0.47101215     0.01010
C855        C  0.41484944  0.91567037  0.43840720     0.42610
N856        N  0.07931911  0.97057882  0.52663035    -0.25600
C857        C  0.04286782  0.62194672  0.44901456    -0.06520
N858        N  0.09899539  0.57346737  0.54459928    -0.46710
N859        N  0.39904620  0.95013986  0.45137071    -0.46930
C860        C  0.08071708  0.60574682  0.43579022     0.42390
N861        N  0.44423995  0.58717945  0.46936178     0.01260
N862        N  0.07947791  0.96983615  0.47088431    -0.25620
N863        N  0.03992375  0.59583203  0.52520640    -0.26110
N864        N  0.05226608  0.93648859  0.47112669     0.00900
H865        H  0.13064251  0.98905531  0.44568436     0.06790
H866        H  0.47579149  0.87493189  0.44687522     0.06820
N867        N  0.41735822  0.55345953  0.46983229    -0.26160
N868        N  0.45785277  0.92932662  0.52690241    -0.25780
N869        N  0.07155543  0.56734783  0.46978609     0.01260
C870        C  0.40569695  0.59675321  0.55842435     0.42660
C871        C  0.10349095  0.96798504  0.54770019    -0.07030
N872        N  0.45724409  0.92789662  0.47148422    -0.25770
H873        H  0.47864679  0.87909067  0.55358227     0.06810
N874        N  0.43945504  0.61301321  0.54517421    -0.47000
H875        H  0.12773660  0.99144079  0.55333007     0.06790
C876        C  0.09049638  0.92662722  0.43778518     0.42490
C877        C  0.04405685  0.62213936  0.54529786    -0.06520
Co878      Co  0.07691480  0.51897274  0.49811295     0.73820
N879        N  0.05675798  0.91100084  0.54687208    -0.46710
C880        C  0.40728825  0.59414890  0.43513241     0.42760
N881        N  0.09647856  0.57163148  0.44959932    -0.46700
Co882      Co  0.00505665  0.93147646  0.49899444     0.73890
C883        C  0.45342582  0.90072688  0.45177029    -0.07030
C884        C  0.39039382  0.55799745  0.54521613    -0.06590
N885        N  0.03948161  0.59585563  0.46969273    -0.26120
N886        N  0.40034917  0.95246808  0.54706456    -0.46880
H887        H  0.36840684  0.53156344  0.44388154     0.06770
C888        C  0.10525758  0.96625351  0.45067678    -0.07010
Cl889      Cl  0.99837444  0.51222797  0.49816117    -0.50010
C890        C  0.08835365  0.92842565  0.56106056     0.42520
H891        H  0.02038343  0.64737764  0.44326490     0.06730
N892        N  0.05764266  0.90996151  0.45165880    -0.46720
C893        C  0.41112608  0.86127655  0.40333221    -0.21390
C894        C  0.40098315  0.90300623  0.41269941    -0.09430
C895        C  0.37930687  0.93312133  0.39685139     0.29420
C896        C  0.37156012  0.92317053  0.37152879    -0.21390
C897        C  0.38156914  0.88130551  0.36171500    -0.09450
C898        C  0.40033833  0.84987549  0.37847920     0.29430
F899        F  0.40733432  0.80767796  0.37142115    -0.19970
H900        H  0.42667345  0.83698219  0.41547039     0.17800
H901        H  0.35811720  0.94915293  0.35978031     0.17800
F902        F  0.36621791  0.97272512  0.40558054    -0.19960
C903        C  0.09059016  0.86801444  0.40505821    -0.21390
C904        C  0.10263072  0.91059943  0.41236409    -0.09430
C905        C  0.12446896  0.93772189  0.39479618     0.29420
C906        C  0.13220991  0.92322394  0.37025823    -0.21390
C907        C  0.12069602  0.88039633  0.36280384    -0.09450
C908        C  0.10016486  0.85262757  0.38080287     0.29430
F909        F  0.09012401  0.81026632  0.37539638    -0.19970
H910        H  0.07416854  0.84623927  0.41831125     0.17800
H911        H  0.14678351  0.94631165  0.35702801     0.17800
F912        F  0.13777480  0.97873057  0.40086795    -0.19960
C913        C  0.38221777  0.64508466  0.40063364    -0.21390
C914        C  0.39828746  0.60382349  0.40822506    -0.09430
C915        C  0.40426508  0.57099373  0.39002780     0.29420
C916        C  0.39235459  0.57864048  0.36478359    -0.21390
C917        C  0.37555004  0.61961379  0.35722819    -0.09450
C918        C  0.37119795  0.65311219  0.37522509     0.29430
F919        F  0.35665130  0.69362317  0.36810256    -0.19970
H920        H  0.37793617  0.67087667  0.41439361     0.17800
H921        H  0.39785160  0.55324993  0.35091360     0.17800
F922        F  0.42383520  0.53246969  0.39645567    -0.19960
C923        C  0.10974189  0.66270957  0.37383592    -0.21390
C924        C  0.11701543  0.62626621  0.35815833    -0.09430
C925        C  0.10937645  0.58353008  0.36801152     0.29420
C926        C  0.09731361  0.57756206  0.39325273    -0.21390
C927        C  0.09174782  0.61373492  0.40905165    -0.09450
C928        C  0.09676173  0.65653109  0.39907070     0.29430
F929        F  0.09054027  0.69214681  0.41390463    -0.19970
H930        H  0.11499066  0.69593696  0.36671870     0.17800
H931        H  0.09134675  0.54455786  0.40043847     0.17800
F932        F  0.11246732  0.54747700  0.35316226    -0.19960
C933        C  0.10586551  0.84742636  0.11994974    -0.21390
C934        C  0.13781213  0.86224797  0.13675389    -0.09430
C935        C  0.18041177  0.86618847  0.12791400     0.29420
C936        C  0.19018761  0.85718299  0.10269491    -0.21390
C937        C  0.15832259  0.84219926  0.08602246    -0.09450
C938        C  0.11606721  0.83690403  0.09493176     0.29430
F939        F  0.08447885  0.82232669  0.07936881    -0.19970
H940        H  0.07282880  0.84411377  0.12616133     0.17800
H941        H  0.22311547  0.86084575  0.09644778     0.17800
F942        F  0.21306827  0.87687433  0.14379315    -0.19960
C943        C  0.32887639  0.84115252  0.12968776    -0.21390
C944        C  0.36812634  0.86201175  0.13503372    -0.09430
C945        C  0.39914261  0.86648840  0.11577643     0.29420
C946        C  0.39075968  0.85073725  0.09147426    -0.21390
C947        C  0.35145690  0.83031953  0.08615550    -0.09450
C948        C  0.32067447  0.82510759  0.10542969     0.29430
F949        F  0.28326536  0.80349493  0.10089679    -0.19970
H950        H  0.30501592  0.83653250  0.14444837     0.17800
H951        H  0.41462456  0.85506276  0.07670573     0.17800
F952        F  0.43717009  0.88684268  0.12040697    -0.19960
C953        C  0.14470734  0.60188164  0.09835382    -0.21390
C954        C  0.14242444  0.64553090  0.08940468    -0.09430
C955        C  0.12998045  0.67892744  0.10623888     0.29420
C956        C  0.12025352  0.66858890  0.13150402    -0.21390
C957        C  0.12300124  0.62499375  0.14053478    -0.09450
C958        C  0.13481430  0.59154557  0.12361141     0.29430
F959        F  0.13681749  0.54881330  0.13152988    -0.19970
H960        H  0.15407872  0.57571308  0.08573705     0.17800
H961        H  0.11224821  0.69498314  0.14428940     0.17800
F962        F  0.12947717  0.72193008  0.09880896    -0.19960
C963        C  0.38606863  0.63031830  0.09504386    -0.21390
C964        C  0.34224398  0.62739836  0.08897285    -0.09430
C965        C  0.31254694  0.61635284  0.10815155     0.29420
C966        C  0.32667644  0.60915081  0.13303063    -0.21390
C967        C  0.37055063  0.61258053  0.13921013    -0.09450
C968        C  0.40025544  0.62260327  0.11984066     0.29430
F969        F  0.44305358  0.62470846  0.12482969    -0.19970
H970        H  0.40941515  0.63863947  0.08051637     0.17800
H971        H  0.30304745  0.60234466  0.14764667     0.17800
F972        F  0.26968808  0.61491734  0.10327795    -0.19960
C973        C  0.35187796  0.89510681  0.61999869    -0.21390
C974        C  0.38415532  0.88494468  0.63789636    -0.09430
C975        C  0.42760544  0.88844277  0.63046742     0.29420
C976        C  0.43814977  0.89945396  0.60544949    -0.21390
C977        C  0.40583003  0.90875240  0.58757956    -0.09450
C978        C  0.36259480  0.90748862  0.59514165     0.29430
F979        F  0.33070608  0.91675914  0.57830068    -0.19970
H980        H  0.31824473  0.89287889  0.62515389     0.17800
H981        H  0.47176525  0.90158535  0.60017147     0.17800
F982        F  0.45999820  0.88265470  0.64747993    -0.19960
C983        C  0.41970856  0.62279067  0.62762000    -0.21390
C984        C  0.37687003  0.62594639  0.63591270    -0.09430
C985        C  0.34339323  0.61980451  0.61824172     0.29420
C986        C  0.35287677  0.61059501  0.59292229    -0.21390
C987        C  0.39568676  0.60803787  0.58478794    -0.09450
C988        C  0.42898961  0.61381234  0.60234471     0.29430
F989        F  0.47043123  0.60785456  0.59535589    -0.19970
H990        H  0.44611231  0.62590022  0.64088515     0.17800
H991        H  0.32681628  0.60573055  0.57961352     0.17800
F992        F  0.30157319  0.62331845  0.62531056    -0.19960
C993        C  0.10238466  0.85706727  0.62000253    -0.21390
C994        C  0.11580895  0.88809923  0.63790708    -0.09430
C995        C  0.11853887  0.93288702  0.63034097     0.29420
C996        C  0.11052182  0.94553084  0.60521883    -0.21390
C997        C  0.09795736  0.91432129  0.58733946    -0.09450
C998        C  0.09296359  0.87007628  0.59505603     0.29430
F999        F  0.07998522  0.83918240  0.57833527    -0.19970
H1000       H  0.09983003  0.82250381  0.62518422     0.17800
H1001       H  0.11302067  0.98007906  0.59993435     0.17800
F1002       F  0.12758008  0.96483750  0.64730662    -0.19960
C1003       C  0.14985244  0.61274479  0.61870891    -0.21390
C1004       C  0.11969236  0.62976498  0.63597303    -0.09430
C1005       C  0.07802239  0.64000169  0.62675137     0.29420
C1006       C  0.06821078  0.63598978  0.60112966    -0.21390
C1007       C  0.09747840  0.61732629  0.58430393    -0.09450
C1008       C  0.13858033  0.60552205  0.59332577     0.29430
F1009       F  0.16804646  0.58745182  0.57759972    -0.19970
H1010       H  0.18224987  0.60484065  0.62474347     0.17800
H1011       H  0.03670398  0.64597257  0.59473079     0.17800
F1012       F  0.04547378  0.65154796  0.64244807    -0.19960
C1013       C  0.10335963  0.63331511  0.90489282    -0.21390
C1014       C  0.14589478  0.63988243  0.91275497    -0.09430
C1015       C  0.17928640  0.63798721  0.89494760     0.29420
C1016       C  0.17034676  0.62826847  0.86968576    -0.21390
C1017       C  0.12779438  0.62107373  0.86171804    -0.09450
C1018       C  0.09425799  0.62379657  0.87957685     0.29430
F1019       F  0.05280551  0.61666126  0.87263496    -0.19970
H1020       H  0.07725634  0.63531761  0.91841005     0.17800
H1021       H  0.19654761  0.62773775  0.85616670     0.17800
F1022       F  0.22010608  0.64832812  0.90170372    -0.19960
C1023       C  0.36871368  0.81203228  0.86667768    -0.21390
C1024       C  0.36685064  0.85720104  0.86013822    -0.09430
C1025       C  0.35554504  0.88747750  0.87897353     0.29420
C1026       C  0.34706903  0.87278350  0.90373366    -0.21390
C1027       C  0.35044168  0.82790808  0.91033291    -0.09450
C1028       C  0.36093867  0.79747641  0.89150063     0.29430
F1029       F  0.36221126  0.75355985  0.89675135    -0.19970
H1030       H  0.37596108  0.78771854  0.85246391     0.17800
H1031       H  0.33859808  0.89669453  0.91794390     0.17800
F1032       F  0.35410321  0.93138344  0.87375727    -0.19960
C1033       C  0.10375659  0.84987093  0.87761776    -0.21390
C1034       C  0.13555600  0.86135120  0.85973258    -0.09430
C1035       C  0.17915532  0.85966291  0.86715474     0.29420
C1036       C  0.19018860  0.84916777  0.89216179    -0.21390
C1037       C  0.15829865  0.83851747  0.91000577    -0.09450
C1038       C  0.11502389  0.83790268  0.90243614     0.29430
F1039       F  0.08355046  0.82697110  0.91920064    -0.19970
H1040       H  0.07004170  0.85071146  0.87249582     0.17800
H1041       H  0.22388040  0.84834118  0.89740699     0.17800
F1042       F  0.21130527  0.86666144  0.85015634    -0.19960
C1043       C  0.32905216  0.60106304  0.87119981    -0.21390
C1044       C  0.37010394  0.61425574  0.86244604    -0.09430
C1045       C  0.39877818  0.63237095  0.88032448     0.29420
C1046       C  0.38574128  0.63861564  0.90550162    -0.21390
C1047       C  0.34486607  0.62495690  0.91392702    -0.09450
C1048       C  0.31738936  0.60440110  0.89660692     0.29430
F1049       F  0.27873720  0.58793137  0.90381877    -0.19970
H1050       H  0.30495341  0.58839385  0.85847146     0.17800
H1051       H  0.40795587  0.65387247  0.91854711     0.17800
F1052       F  0.43970784  0.64326880  0.87393118    -0.19960
O1053       O  0.95524638  0.20242664  0.71022121    -0.80220
O1054       O  0.54441575  0.29489823  0.70996655    -0.80250
O1055       O  0.90794073  0.29073550  0.74080999    -0.80250
O1056       O  0.59257310  0.20583392  0.74152647    -0.80200
O1057       O  0.95486996  0.29438747  0.71006847    -0.80320
O1058       O  0.54580817  0.20289975  0.71054865    -0.80240
O1059       O  0.59160076  0.29157612  0.74065837    -0.80220
O1060       O  0.90810740  0.20493662  0.74094771    -0.80260
C1061       C  0.91737929  0.19570404  0.71814532     1.09470
C1062       C  0.58205769  0.30214061  0.71787175     1.09350
C1063       C  0.91713812  0.30104684  0.71800198     1.09490
C1064       C  0.58379860  0.19701478  0.71865876     1.09370
O1065       O  0.54229736  0.15385649  0.75840991    -0.80220
O1066       O  0.95776790  0.34185269  0.75795986    -0.80300
O1067       O  0.95446275  0.20090367  0.78937098    -0.80240
O1068       O  0.54422448  0.29338353  0.78877957    -0.80220
O1069       O  0.54172294  0.34218568  0.75798900    -0.80270
O1070       O  0.95809086  0.15362268  0.75859126    -0.80230
O1071       O  0.54530332  0.20121509  0.78921140    -0.80190
O1072       O  0.95551562  0.29290697  0.78871186    -0.80260
Co1073     Co  0.50030156  0.18405115  0.73460579     1.51530
Co1074     Co  0.99971234  0.31243806  0.73422021     1.51690
Co1075     Co  0.93731993  0.24739098  0.76479112     1.51570
Co1076     Co  0.56264207  0.24800652  0.76489570     1.51470
O1077       O  0.00001300  0.24787358  0.74961464    -1.42160
C1078       C  0.55232707  0.16284490  0.78111622     1.09390
C1079       C  0.94815375  0.33160802  0.78070016     1.09480
C1080       C  0.94748545  0.16257981  0.78129012     1.09420
C1081       C  0.55187574  0.33193899  0.78068569     1.09400
C1082       C  0.88188326  0.10817407  0.83499784     0.03040
C1083       C  0.91121685  0.13643724  0.82203854    -0.13110
C1084       C  0.92014778  0.13088599  0.79601878     0.00540
C1085       C  0.89736622  0.09848620  0.78271684    -0.11630
C1086       C  0.86591485  0.07248566  0.79474762     0.03040
C1087       C  0.86062259  0.07544308  0.82091940    -0.11050
H1088       H  0.92590131  0.16379866  0.83167012     0.08630
H1089       H  0.90134913  0.09618312  0.76237425     0.06160
H1090       H  0.83845938  0.05270774  0.82992510     0.06010
O1091       O  0.84287501  0.03942861  0.75646409    -0.80220
O1092       O  0.65787981  0.45513797  0.75689897    -0.80250
O1093       O  0.70566815  0.04327538  0.78768987    -0.80250
O1094       O  0.79444457  0.45047023  0.78803570    -0.80200
O1095       O  0.65844571  0.04094456  0.75694695    -0.80320
O1096       O  0.84155990  0.45371818  0.75735264    -0.80240
O1097       O  0.70482792  0.45147355  0.78769178    -0.80220
O1098       O  0.79613198  0.04233764  0.78739146    -0.80260
C1099       C  0.83411089  0.04822542  0.77932981     1.09470
C1100       C  0.66706582  0.44490538  0.77971341     1.09350
C1101       C  0.66783686  0.05024120  0.77974329     1.09490
C1102       C  0.83208009  0.44323641  0.78015290     1.09370
O1103       O  0.79400970  0.45208969  0.70919735    -0.80220
O1104       O  0.70488541  0.04486260  0.70858420    -0.80300
O1105       O  0.79273049  0.09147780  0.73953095    -0.80240
O1106       O  0.70770287  0.40383963  0.73992425    -0.80220
O1107       O  0.70534102  0.45271317  0.70911247    -0.80270
O1108       O  0.79560956  0.04416847  0.70870073    -0.80230
O1109       O  0.79161424  0.40323232  0.73995542    -0.80190
O1110       O  0.70859391  0.09209714  0.73939000    -0.80260
Co1111     Co  0.81274570  0.49735338  0.73306933     1.51530
Co1112     Co  0.68744816  0.49838736  0.73305231     1.51690
Co1113     Co  0.75071835  0.06145222  0.76333538     1.51570
Co1114     Co  0.74968883  0.43313480  0.76368869     1.51470
O1115       O  0.75015297  0.49766943  0.74829321    -1.42160
C1116       C  0.80159734  0.41349744  0.71724114     1.09390
C1117       C  0.69790895  0.08315940  0.71670134     1.09480
C1118       C  0.80262729  0.08253032  0.71680856     1.09420
C1119       C  0.69806833  0.41399588  0.71716882     1.09400
C1120       C  0.62305879  0.37440865  0.83346241     0.03040
C1121       C  0.64534287  0.40822380  0.82050873    -0.13110
C1122       C  0.63652581  0.41795215  0.79498108     0.00540
C1123       C  0.60274289  0.39560294  0.78288665    -0.11630
C1124       C  0.58001287  0.36163383  0.79545559     0.03040
C1125       C  0.59035619  0.35140687  0.82077440    -0.11050
H1126       H  0.67065825  0.42610049  0.83001902     0.08630
H1127       H  0.59675858  0.40188825  0.76292320     0.06160
H1128       H  0.57440108  0.32400282  0.83021557     0.06010
C1129       C  0.87788726  0.37202902  0.83389296     0.03040
C1130       C  0.91188719  0.35140820  0.82112444    -0.13110
C1131       C  0.92068916  0.36142498  0.79568539     0.00540
C1132       C  0.89691763  0.39481675  0.78333966    -0.11630
C1133       C  0.86231420  0.41568295  0.79549877     0.03040
C1134       C  0.85301762  0.40402182  0.82086392    -0.11050
H1135       H  0.93058448  0.32606153  0.83072278     0.08630
H1136       H  0.90276532  0.40161553  0.76342030     0.06160
H1137       H  0.82520407  0.41820519  0.83001540     0.06010
C1138       C  0.61864299  0.11257908  0.83463966     0.03040
C1139       C  0.58697422  0.13738164  0.82178302    -0.13110
C1140       C  0.57954145  0.13145719  0.79584438     0.00540
C1141       C  0.60370769  0.09958437  0.78291348    -0.11630
C1142       C  0.63690665  0.07591226  0.79513765     0.03040
C1143       C  0.64382754  0.08232024  0.82112278    -0.11050
H1144       H  0.56945976  0.16269735  0.83173854     0.08630
H1145       H  0.59926185  0.09603791  0.76267147     0.06160
H1146       H  0.66940790  0.06447558  0.83073976     0.06010
C1147       C  0.63137962  0.13666310  0.66326025     0.03040
C1148       C  0.61040428  0.16971368  0.67713235    -0.13110
C1149       C  0.61564899  0.17274461  0.70330812     0.00540
C1150       C  0.64716075  0.14678924  0.71539633    -0.11630
C1151       C  0.67031392  0.11469382  0.70206785     0.03040
C1152       C  0.66145686  0.10912303  0.67606339    -0.11050
H1153       H  0.58868528  0.19267311  0.66791597     0.08630
H1154       H  0.65108326  0.14902528  0.73574940     0.06160
H1155       H  0.67692468  0.08245607  0.66616552     0.06010
C1156       C  0.62729548  0.37364367  0.66418121     0.03040
C1157       C  0.60265080  0.34153207  0.67723649    -0.13110
C1158       C  0.61215985  0.32983235  0.70256425     0.00540
C1159       C  0.64675122  0.35081390  0.71469837    -0.11630
C1160       C  0.67061698  0.38400783  0.70224655     0.03040
C1161       C  0.66189635  0.39369396  0.67675164    -0.11050
H1162       H  0.57489012  0.32715911  0.66808801     0.08630
H1163       H  0.65260306  0.34416444  0.73463997     0.06160
H1164       H  0.68124608  0.41827447  0.66699753     0.06010
C1165       C  0.86772582  0.13403023  0.66309242     0.03040
C1166       C  0.89257442  0.16461739  0.67666104    -0.13110
C1167       C  0.88624583  0.17028669  0.70273551     0.00540
C1168       C  0.85354507  0.14607303  0.71499953    -0.11630
C1169       C  0.82952944  0.11410812  0.70204439     0.03040
C1170       C  0.83675261  0.10844346  0.67606070    -0.11050
H1171       H  0.91758117  0.18326564  0.66705047     0.08630
H1172       H  0.84943975  0.14926818  0.73528465     0.06160
H1173       H  0.81961862  0.08275134  0.66618954     0.06010
C1174       C  0.87227905  0.37160182  0.66423028     0.03040
C1175       C  0.83938848  0.39409245  0.67699093    -0.13110
C1176       C  0.82953800  0.38385080  0.70236189     0.00540
C1177       C  0.85263626  0.35006090  0.71485182    -0.11630
C1178       C  0.88658486  0.32810795  0.70271248     0.03040
C1179       C  0.89530905  0.33822506  0.67718575    -0.11050
H1180       H  0.82294758  0.42122184  0.66755907     0.08630
H1181       H  0.84679943  0.34365883  0.73481318     0.06160
H1182       H  0.92097556  0.32095847  0.66764983     0.06010
C1183       C  0.83047463  0.13535198  0.94004095     0.42370
N1184       N  0.82136731  0.17483691  0.97316390     0.01260
C1185       C  0.64019732  0.19439997  0.04805970    -0.06610
H1186       H  0.61638617  0.21393493  0.94628921     0.06750
C1187       C  0.70924003  0.34183967  0.94945314    -0.06970
Co1188     Co  0.73980373  0.15301603  0.00103595     0.74180
N1189       N  0.66608246  0.19315353  0.97250905    -0.26140
Co1190     Co  0.67020780  0.24262105  0.99933190     0.74070
C1191       C  0.67068332  0.32744802  0.93624912     0.42470
N1192       N  0.80506662  0.30629395  0.97109571     0.00880
N1193       N  0.67719956  0.29014207  0.97078116     0.00980
N1194       N  0.68610794  0.13666814  0.04972535    -0.46990
H1195       H  0.76799360  0.09631100  0.94847019     0.06740
N1196       N  0.69288867  0.15940073  0.97282184     0.01270
N1197       N  0.67671676  0.29174276  0.02643068     0.01010
C1198       C  0.66997955  0.33081810  0.05979499     0.42610
N1199       N  0.83111383  0.27196369  0.97123753    -0.25600
C1200       C  0.78898705  0.12433011  0.05007191    -0.06520
N1201       N  0.84728927  0.16851117  0.95364676    -0.46710
N1202       N  0.65184239  0.29796442  0.04646657    -0.46930
C1203       C  0.82800106  0.13854121  0.06300512     0.42390
N1204       N  0.69198230  0.16085227  0.02883348     0.01260
N1205       N  0.83133786  0.27338089  0.02715018    -0.25620
N1206       N  0.78799473  0.14797661  0.97335843    -0.26110
N1207       N  0.80460896  0.30717484  0.02658868     0.00900
H1208       H  0.88055018  0.25301239  0.05390004     0.06790
H1209       H  0.73219185  0.36906086  0.05111715     0.06820
N1210       N  0.66582277  0.19507035  0.02772559    -0.26160
N1211       N  0.71077377  0.31675484  0.97052182    -0.25780
N1212       N  0.82065404  0.17616966  0.02856906     0.01260
C1213       C  0.65520986  0.15095376  0.93920076     0.42660
C1214       C  0.85518456  0.27370031  0.95010431    -0.07030
N1215       N  0.71033050  0.31825173  0.02601718    -0.25770
H1216       H  0.73274974  0.36625389  0.94373057     0.06810
N1217       N  0.68808456  0.13384048  0.95287155    -0.47000
H1218       H  0.87892815  0.24962918  0.94463016     0.06790
C1219       C  0.84174634  0.31640823  0.06026449     0.42490
C1220       C  0.79107324  0.12144571  0.95328093    -0.06520
Co1221     Co  0.82742300  0.22398342  0.00003347     0.73820
N1222       N  0.80982420  0.33183394  0.95076072    -0.46710
C1223       C  0.65397372  0.15608707  0.06281605     0.42760
N1224       N  0.84596188  0.17065003  0.04855839    -0.46700
Co1225     Co  0.75782944  0.31330739  0.99855770     0.73890
C1226       C  0.70859555  0.34447647  0.04617698    -0.07030
C1227       C  0.64051867  0.19022050  0.95211688    -0.06590
N1228       N  0.78702181  0.14960065  0.02904724    -0.26120
N1229       N  0.65240511  0.29531874  0.95051931    -0.46880
H1230       H  0.61593397  0.21867821  0.05231464     0.06770
C1231       C  0.85643309  0.27655626  0.04780472    -0.07010
Cl1232     Cl  0.74883399  0.23315549  0.99973364    -0.50010
C1233       C  0.84072813  0.31341140  0.93653310     0.42520
H1234       H  0.76558229  0.09977674  0.05575923     0.06730
N1235       N  0.80931158  0.33328064  0.04627237    -0.46720
C1236       C  0.62652624  0.37222024  0.16347022     0.03040
C1237       C  0.64530241  0.40812960  0.17612263    -0.13110
C1238       C  0.63634956  0.41562027  0.20186550     0.00540
C1239       C  0.60597175  0.38939986  0.21417112    -0.11630
C1240       C  0.58838563  0.35269306  0.20226269     0.03040
C1241       C  0.59858172  0.34406855  0.17699312    -0.11050
H1242       H  0.66818273  0.42921742  0.16635924     0.08630
H1243       H  0.59998711  0.39432358  0.23418077     0.06160
H1244       H  0.58574558  0.31482688  0.16816097     0.06010
C1245       C  0.88471556  0.10796858  0.16598857     0.03040
C1246       C  0.91280705  0.13930028  0.17630141    -0.13110
C1247       C  0.92471348  0.13652573  0.20180638     0.00540
C1248       C  0.90802856  0.10211726  0.21728694    -0.11630
C1249       C  0.87807780  0.07216485  0.20777927     0.03040
C1250       C  0.86739988  0.07470939  0.18186078    -0.11050
H1251       H  0.92438296  0.16658388  0.16471756     0.08630
H1252       H  0.91514380  0.10114957  0.23740325     0.06160
H1253       H  0.84414330  0.05181477  0.17423410     0.06010
C1254       C  0.87761049  0.37662647  0.16105668     0.03040
C1255       C  0.85004824  0.40597123  0.17347612    -0.13110
C1256       C  0.85811899  0.41767915  0.19870123     0.00540
C1257       C  0.89380309  0.39919703  0.21151080    -0.11630
C1258       C  0.92001273  0.36784925  0.19979743     0.03040
C1259       C  0.91247204  0.35791610  0.17425021    -0.11050
H1260       H  0.82210184  0.41904348  0.16363699     0.08630
H1261       H  0.89858217  0.40582583  0.23145132     0.06160
H1262       H  0.93193776  0.33318516  0.16505338     0.06010
O1263       O  0.70240470  0.44457736  0.28903219    -0.80220
O1264       O  0.79464271  0.05373364  0.27989930    -0.80250
O1265       O  0.79268053  0.40624725  0.25913294    -0.80250
O1266       O  0.71861816  0.08233136  0.26344529    -0.80200
O1267       O  0.81620760  0.46204282  0.28332533    -0.80320
O1268       O  0.70343590  0.03392687  0.29193935    -0.80240
O1269       O  0.79221710  0.10631854  0.25043474    -0.80220
O1270       O  0.70726816  0.39674912  0.25847429    -0.80260
C1271       C  0.69712785  0.40597829  0.28121589     1.09470
C1272       C  0.80328689  0.09364119  0.27300612     1.09350
C1273       C  0.81144310  0.42094204  0.27902587     1.09490
C1274       C  0.70224068  0.07326143  0.28438325     1.09370
O1275       O  0.66603455  0.03750223  0.24045933    -0.80220
O1276       O  0.83701408  0.45867250  0.23437660    -0.80300
O1277       O  0.70375995  0.44620567  0.21000179    -0.80240
O1278       O  0.81121262  0.03838353  0.21850329    -0.80220
O1279       O  0.86192403  0.03452078  0.24808431    -0.80270
O1280       O  0.65644586  0.45097693  0.24046593    -0.80230
O1281       O  0.71957165  0.06290707  0.21534889    -0.80190
O1282       O  0.78831751  0.44692596  0.20685413    -0.80260
Co1283     Co  0.68625052  0.49181804  0.26522175     1.51530
Co1284     Co  0.80771391  0.50468952  0.25549117     1.51690
Co1285     Co  0.74831775  0.42801733  0.23396943     1.51570
Co1286     Co  0.76243826  0.05189413  0.24258275     1.51470
O1287       O  0.74538978  0.48830330  0.24948138    -1.42160
C1288       C  0.67948679  0.05833664  0.22074642     1.09390
C1289       C  0.82679801  0.44395505  0.21320165     1.09480
C1290       C  0.66591378  0.44155418  0.21763011     1.09420
C1291       C  0.85033844  0.04630354  0.22545281     1.09400
O1292       O  0.58786233  0.28414250  0.26301363    -0.80220
O1293       O  0.91549725  0.20859723  0.25759760    -0.80250
O1294       O  0.95516282  0.30135005  0.28698928    -0.80250
O1295       O  0.56068905  0.20554909  0.27932627    -0.80200
O1296       O  0.90746663  0.29528837  0.25676700    -0.80320
O1297       O  0.61129336  0.20753373  0.24976070    -0.80240
O1298       O  0.96901848  0.18304829  0.28271182    -0.80220
O1299       O  0.53904058  0.29818623  0.29000046    -0.80260
C1300       C  0.57760316  0.29997950  0.28386819     1.09470
C1301       C  0.92895903  0.18800124  0.27740948     1.09350
C1302       C  0.91727064  0.30561435  0.27942272     1.09490
C1303       C  0.59955234  0.19641438  0.27245463     1.09370
O1304       O  0.54329498  0.18963048  0.21795884    -0.80220
O1305       O  0.95287880  0.29942776  0.20806271    -0.80300
O1306       O  0.54466673  0.33683673  0.23732321    -0.80240
O1307       O  0.96711953  0.16246774  0.23477887    -0.80220
O1308       O  0.95228160  0.21027271  0.20588262    -0.80270
O1309       O  0.56827380  0.27997793  0.21405601    -0.80230
O1310       O  0.54061408  0.13750494  0.24761616    -0.80190
O1311       O  0.95879016  0.34842591  0.23788587    -0.80260
Co1312     Co  0.55767909  0.23844837  0.24213370     1.51530
Co1313     Co  0.93624196  0.25327714  0.23234375     1.51690
Co1314     Co  0.49971205  0.31723420  0.26264811     1.51570
Co1315     Co  0.51163414  0.19259087  0.25531121     1.51470
O1316       O  0.49563472  0.25639777  0.24787033    -1.42160
C1317       C  0.55163338  0.14977732  0.22498135     1.09390
C1318       C  0.94745904  0.33820635  0.21547260     1.09480
C1319       C  0.56443079  0.32124192  0.21802207     1.09420
C1320       C  0.95081701  0.17115852  0.21375250     1.09400
C1321       C  0.61762231  0.11511469  0.16797197     0.03040
C1322       C  0.64981158  0.09090073  0.18061542    -0.13110
C1323       C  0.64604015  0.08167081  0.20644520     0.00540
C1324       C  0.60984565  0.09622112  0.21985168    -0.11630
C1325       C  0.57909706  0.12294194  0.20830184     0.03040
C1326       C  0.58285945  0.13227238  0.18206438    -0.11050
H1327       H  0.67799154  0.07973941  0.17046632     0.08630
H1328       H  0.60783979  0.09051038  0.24015755     0.06160
H1329       H  0.55961841  0.15374809  0.17283485     0.06010
C1330       C  0.63252923  0.13273787  0.33171959     0.03040
C1331       C  0.66339321  0.10393192  0.32171821    -0.13110
C1332       C  0.67556138  0.10741948  0.29632428     0.00540
C1333       C  0.65815019  0.14153247  0.28090491    -0.11630
C1334       C  0.62677629  0.17008681  0.29026677     0.03040
C1335       C  0.61464292  0.16582099  0.31593089    -0.11050
H1336       H  0.67750546  0.07825005  0.33352451     0.08630
H1337       H  0.66599868  0.14330990  0.26090458     0.06160
H1338       H  0.58928165  0.18654788  0.32326046     0.06010
C1339       C  0.86909486  0.12948217  0.33004062     0.03040
C1340       C  0.83508910  0.11073077  0.31601620    -0.13110
C1341       C  0.83052186  0.12056466  0.28984603     0.00540
C1342       C  0.86004354  0.14886626  0.27838886    -0.11630
C1343       C  0.89575048  0.16465950  0.29180366     0.03040
C1344       C  0.89989670  0.15558267  0.31762813    -0.11050
H1345       H  0.81322316  0.08779962  0.32524423     0.08630
H1346       H  0.85771486  0.15481158  0.25811256     0.06160
H1347       H  0.92733247  0.16814344  0.32797815     0.06010
C1348       C  0.62989618  0.36583350  0.33633559     0.03040
C1349       C  0.66523915  0.38357828  0.32285360    -0.13110
C1350       C  0.67111336  0.37521333  0.29698616     0.00540
C1351       C  0.64444342  0.34446684  0.28525681    -0.11630
C1352       C  0.60917518  0.32596997  0.29825317     0.02840
C1353       C  0.60145927  0.33762157  0.32349549    -0.11050
H1354       H  0.68721106  0.40599644  0.33199521     0.08630
H1355       H  0.64840161  0.33848488  0.26518229     0.06160
H1356       H  0.57234153  0.32604419  0.33260115     0.06010
C1357       C  0.87205823  0.37119669  0.33440015     0.03040
C1358       C  0.84080989  0.39575293  0.32081414    -0.13110
C1359       C  0.83413200  0.38883575  0.29499374     0.00540
C1360       C  0.85488604  0.35436380  0.28291152    -0.11630
C1361       C  0.88722910  0.33084339  0.29521695     0.03040
C1362       C  0.89627794  0.33973054  0.32087197    -0.11050
H1363       H  0.82185671  0.42098103  0.32976560     0.08630
H1364       H  0.84984304  0.34978287  0.26277326     0.06160
H1365       H  0.92377807  0.32388264  0.32958064     0.06010
C1366       C  0.58337481  0.10719573  0.55818225     0.42370
N1367       N  0.57251618  0.06796819  0.52521238     0.01260
C1368       C  0.89263431  0.05531127  0.44906962    -0.06610
H1369       H  0.86534754  0.03501414  0.55062036     0.06750
C1370       C  0.95575981  0.40417120  0.54791296    -0.06970
Co1371     Co  0.99182789  0.09292320  0.49742203     0.74180
N1372       N  0.91656709  0.05442125  0.52516233    -0.26140
Co1373     Co  0.91974159  0.00516511  0.49817190     0.74070
C1374       C  0.91780372  0.41961411  0.56122444     0.42470
N1375       N  0.55246495  0.43690479  0.52662772     0.00880
N1376       N  0.92508964  0.45700766  0.52672290     0.00980
N1377       N  0.93963992  0.11214465  0.44864832    -0.46990
H1378       H  0.52182798  0.14787411  0.55048790     0.06740
N1379       N  0.94430541  0.08736381  0.52527197     0.01270
N1380       N  0.92488110  0.45600111  0.47101215     0.01010
C1381       C  0.91484944  0.41567040  0.43840721     0.42610
N1382       N  0.57931910  0.47057884  0.52663035    -0.25600
C1383       C  0.54286781  0.12194671  0.44901456    -0.06520
N1384       N  0.59899539  0.07346735  0.54459928    -0.46710
N1385       N  0.89904620  0.45013988  0.45137071    -0.46930
C1386       C  0.58071707  0.10574681  0.43579022     0.42390
N1387       N  0.94423995  0.08717942  0.46936178     0.01260
N1388       N  0.57947791  0.46983618  0.47088432    -0.25620
N1389       N  0.53992374  0.09583200  0.52520640    -0.26110
N1390       N  0.55226607  0.43648862  0.47112670     0.00900
H1391       H  0.63064250  0.48905534  0.44568436     0.06790
H1392       H  0.97579149  0.37493191  0.44687523     0.06820
N1393       N  0.91735823  0.05345950  0.46983229    -0.26160
N1394       N  0.95785277  0.42932665  0.52690242    -0.25780
N1395       N  0.57155543  0.06734781  0.46978608     0.01260
C1396       C  0.90569695  0.09675318  0.55842435     0.42660
C1397       C  0.60349095  0.46798506  0.54770019    -0.07030
N1398       N  0.95724409  0.42789665  0.47148422    -0.25770
H1399       H  0.97864678  0.37909069  0.55358227     0.06810
N1400       N  0.93945505  0.11301318  0.54517421    -0.47000
H1401       H  0.62773659  0.49144081  0.55333008     0.06790
C1402       C  0.59049637  0.42662725  0.43778518     0.42490
C1403       C  0.54405685  0.12213933  0.54529786    -0.06520
Co1404     Co  0.57691479  0.01897272  0.49811294     0.73820
N1405       N  0.55675798  0.41100086  0.54687208    -0.46710
C1406       C  0.90728826  0.09414887  0.43513241     0.42760
N1407       N  0.59647856  0.07163147  0.44959931    -0.46700
Co1408     Co  0.50505665  0.43147649  0.49899444     0.73890
C1409       C  0.95342582  0.40072691  0.45177030    -0.07030
C1410       C  0.89039382  0.05799742  0.54521613    -0.06590
N1411       N  0.53948160  0.09585561  0.46969273    -0.26120
N1412       N  0.90034917  0.45246811  0.54706456    -0.46880
H1413       H  0.86840684  0.03156342  0.44388154     0.06770
C1414       C  0.60525757  0.46625353  0.45067679    -0.07010
Cl1415     Cl  0.49837444  0.01222794  0.49816116    -0.50010
C1416       C  0.58835365  0.42842568  0.56106056     0.42520
H1417       H  0.52038342  0.14737763  0.44326491     0.06730
N1418       N  0.55764265  0.40996154  0.45165880    -0.46720
C1419       C  0.91112609  0.36127657  0.40333221    -0.21390
C1420       C  0.90098315  0.40300625  0.41269941    -0.09430
C1421       C  0.87930687  0.43312134  0.39685139     0.29420
C1422       C  0.87156012  0.42317054  0.37152879    -0.21390
C1423       C  0.88156915  0.38130553  0.36171500    -0.09450
C1424       C  0.90033835  0.34987551  0.37847920     0.29430
F1425       F  0.90733435  0.30767798  0.37142116    -0.19970
H1426       H  0.92667348  0.33698222  0.41547039     0.17800
H1427       H  0.85811720  0.44915294  0.35978031     0.17800
F1428       F  0.86621790  0.47272513  0.40558055    -0.19960
C1429       C  0.59059011  0.36801448  0.40505820    -0.21390
C1430       C  0.60263070  0.41059945  0.41236409    -0.09430
C1431       C  0.62446897  0.43772191  0.39479618     0.29420
C1432       C  0.63220991  0.42322395  0.37025823    -0.21390
C1433       C  0.62069600  0.38039636  0.36280383    -0.09450
C1434       C  0.60016482  0.35262761  0.38080286     0.29430
F1435       F  0.59012394  0.31026637  0.37539638    -0.19970
H1436       H  0.57416848  0.34623932  0.41831125     0.17800
H1437       H  0.64678352  0.44631166  0.35702802     0.17800
F1438       F  0.63777483  0.47873058  0.40086796    -0.19960
C1439       C  0.88221776  0.14508464  0.40063365    -0.21390
C1440       C  0.89828747  0.10382347  0.40822506    -0.09430
C1441       C  0.90426509  0.07099372  0.39002780     0.29420
C1442       C  0.89235460  0.07864047  0.36478358    -0.21390
C1443       C  0.87555004  0.11961378  0.35722819    -0.09450
C1444       C  0.87119794  0.15311217  0.37522510     0.29430
F1445       F  0.85665128  0.19362315  0.36810256    -0.19970
H1446       H  0.87793616  0.17087664  0.41439362     0.17800
H1447       H  0.89785161  0.05324992  0.35091360     0.17800
F1448       F  0.92383521  0.03246968  0.39645567    -0.19960
C1449       C  0.60974193  0.16270957  0.37383593    -0.21390
C1450       C  0.61701542  0.12626621  0.35815833    -0.09430
C1451       C  0.60937638  0.08353009  0.36801151     0.29420
C1452       C  0.59731354  0.07756206  0.39325272    -0.21390
C1453       C  0.59174780  0.11373492  0.40905165    -0.09450
C1454       C  0.59676176  0.15653109  0.39907071     0.29430
F1455       F  0.59054035  0.19214681  0.41390465    -0.19970
H1456       H  0.61499073  0.19593696  0.36671871     0.17800
H1457       H  0.59134664  0.04455787  0.40043845     0.17800
F1458       F  0.61246722  0.04747701  0.35316224    -0.19960
C1459       C  0.60586552  0.34742635  0.11994974    -0.21390
C1460       C  0.63781213  0.36224796  0.13675390    -0.09430
C1461       C  0.68041177  0.36618848  0.12791400     0.29420
C1462       C  0.69018762  0.35718299  0.10269491    -0.21390
C1463       C  0.65832260  0.34219926  0.08602246    -0.09450
C1464       C  0.61606721  0.33690402  0.09493177     0.29430
F1465       F  0.58447886  0.32232668  0.07936881    -0.19970
H1466       H  0.57282881  0.34411375  0.12616133     0.17800
H1467       H  0.72311547  0.36084576  0.09644778     0.17800
F1468       F  0.71306828  0.37687434  0.14379315    -0.19960
C1469       C  0.82887639  0.34115252  0.12968776    -0.21390
C1470       C  0.86812634  0.36201176  0.13503372    -0.09430
C1471       C  0.89914260  0.36648841  0.11577643     0.29420
C1472       C  0.89075968  0.35073727  0.09147426    -0.21390
C1473       C  0.85145690  0.33031954  0.08615550    -0.09450
C1474       C  0.82067447  0.32510760  0.10542969     0.29430
F1475       F  0.78326536  0.30349493  0.10089679    -0.19970
H1476       H  0.80501593  0.33653250  0.14444837     0.17800
H1477       H  0.91462455  0.35506278  0.07670573     0.17800
F1478       F  0.93717009  0.38684269  0.12040697    -0.19960
C1479       C  0.64470734  0.10188164  0.09835382    -0.21390
C1480       C  0.64242444  0.14553090  0.08940468    -0.09430
C1481       C  0.62998045  0.17892744  0.10623888     0.29420
C1482       C  0.62025352  0.16858890  0.13150402    -0.21390
C1483       C  0.62300124  0.12499375  0.14053479    -0.09450
C1484       C  0.63481429  0.09154557  0.12361142     0.29430
F1485       F  0.63681749  0.04881330  0.13152988    -0.19970
H1486       H  0.65407872  0.07571308  0.08573705     0.17800
H1487       H  0.61224821  0.19498314  0.14428940     0.17800
F1488       F  0.62947717  0.22193008  0.09880896    -0.19960
C1489       C  0.88606862  0.13031831  0.09504386    -0.21390
C1490       C  0.84224398  0.12739838  0.08897286    -0.09430
C1491       C  0.81254693  0.11635287  0.10815156     0.29420
C1492       C  0.82667643  0.10915084  0.13303063    -0.21390
C1493       C  0.87055062  0.11258054  0.13921014    -0.09450
C1494       C  0.90025543  0.12260328  0.11984067     0.29430
F1495       F  0.94305357  0.12470845  0.12482970    -0.19970
H1496       H  0.90941515  0.13863946  0.08051638     0.17800
H1497       H  0.80304743  0.10234469  0.14764668     0.17800
F1498       F  0.76968807  0.11491738  0.10327795    -0.19960
C1499       C  0.85187796  0.39510683  0.61999869    -0.21390
C1500       C  0.88415531  0.38494469  0.63789636    -0.09430
C1501       C  0.92760544  0.38844279  0.63046742     0.29420
C1502       C  0.93814977  0.39945398  0.60544949    -0.21390
C1503       C  0.90583003  0.40875243  0.58757956    -0.09450
C1504       C  0.86259479  0.40748864  0.59514165     0.29430
F1505       F  0.83070608  0.41675916  0.57830068    -0.19970
H1506       H  0.81824473  0.39287890  0.62515389     0.17800
H1507       H  0.97176524  0.40158538  0.60017147     0.17800
F1508       F  0.95999820  0.38265472  0.64747993    -0.19960
C1509       C  0.91970856  0.12279066  0.62762000    -0.21390
C1510       C  0.87687004  0.12594637  0.63591270    -0.09430
C1511       C  0.84339323  0.11980449  0.61824172     0.29420
C1512       C  0.85287678  0.11059498  0.59292229    -0.21390
C1513       C  0.89568677  0.10803784  0.58478794    -0.09450
C1514       C  0.92898962  0.11381232  0.60234470     0.29430
F1515       F  0.97043124  0.10785455  0.59535589    -0.19970
H1516       H  0.94611231  0.12590021  0.64088514     0.17800
H1517       H  0.82681629  0.10573051  0.57961352     0.17800
F1518       F  0.80157320  0.12331843  0.62531056    -0.19960
C1519       C  0.60238465  0.35706729  0.62000253    -0.21390
C1520       C  0.61580895  0.38809924  0.63790708    -0.09430
C1521       C  0.61853887  0.43288703  0.63034098     0.29420
C1522       C  0.61052182  0.44553085  0.60521883    -0.21390
C1523       C  0.59795736  0.41432131  0.58733946    -0.09450
C1524       C  0.59296358  0.37007630  0.59505603     0.29430
F1525       F  0.57998521  0.33918242  0.57833527    -0.19970
H1526       H  0.59983002  0.32250383  0.62518422     0.17800
H1527       H  0.61302068  0.48007908  0.59993435     0.17800
F1528       F  0.62758009  0.46483751  0.64730663    -0.19960
C1529       C  0.64985243  0.11274477  0.61870891    -0.21390
C1530       C  0.61969236  0.12976496  0.63597302    -0.09430
C1531       C  0.57802238  0.14000167  0.62675136     0.29420
C1532       C  0.56821078  0.13598976  0.60112966    -0.21390
C1533       C  0.59747839  0.11732627  0.58430393    -0.09450
C1534       C  0.63858032  0.10552202  0.59332577     0.29430
F1535       F  0.66804645  0.08745179  0.57759972    -0.19970
H1536       H  0.68224986  0.10484063  0.62474347     0.17800
H1537       H  0.53670397  0.14597254  0.59473079     0.17800
F1538       F  0.54547378  0.15154795  0.64244806    -0.19960
C1539       C  0.60335964  0.13331511  0.90489281    -0.21390
C1540       C  0.64589478  0.13988243  0.91275497    -0.09430
C1541       C  0.67928641  0.13798721  0.89494760     0.29420
C1542       C  0.67034676  0.12826847  0.86968576    -0.21390
C1543       C  0.62779439  0.12107374  0.86171804    -0.09450
C1544       C  0.59425800  0.12379658  0.87957685     0.29430
F1545       F  0.55280551  0.11666126  0.87263496    -0.19970
H1546       H  0.57725635  0.13531761  0.91841005     0.17800
H1547       H  0.69654761  0.12773776  0.85616670     0.17800
F1548       F  0.72010609  0.14832813  0.90170372    -0.19960
C1549       C  0.86871368  0.31203228  0.86667768    -0.21390
C1550       C  0.86685064  0.35720104  0.86013822    -0.09430
C1551       C  0.85554504  0.38747750  0.87897353     0.29420
C1552       C  0.84706903  0.37278350  0.90373366    -0.21390
C1553       C  0.85044169  0.32790808  0.91033291    -0.09450
C1554       C  0.86093868  0.29747641  0.89150063     0.29430
F1555       F  0.86221126  0.25355985  0.89675135    -0.19970
H1556       H  0.87596108  0.28771854  0.85246391     0.17800
H1557       H  0.83859807  0.39669453  0.91794390     0.17800
F1558       F  0.85410320  0.43138344  0.87375727    -0.19960
C1559       C  0.60375659  0.34987092  0.87761776    -0.21390
C1560       C  0.63555600  0.36135120  0.85973258    -0.09430
C1561       C  0.67915532  0.35966290  0.86715474     0.29420
C1562       C  0.69018860  0.34916776  0.89216179    -0.21390
C1563       C  0.65829866  0.33851746  0.91000577    -0.09450
C1564       C  0.61502389  0.33790267  0.90243613     0.29430
F1565       F  0.58355046  0.32697109  0.91920064    -0.19970
H1566       H  0.57004170  0.35071145  0.87249581     0.17800
H1567       H  0.72388040  0.34834117  0.89740698     0.17800
F1568       F  0.71130527  0.36666144  0.85015634    -0.19960
C1569       C  0.82905216  0.10106305  0.87119982    -0.21390
C1570       C  0.87010394  0.11425574  0.86244604    -0.09430
C1571       C  0.89877818  0.13237095  0.88032448     0.29420
C1572       C  0.88574128  0.13861564  0.90550162    -0.21390
C1573       C  0.84486607  0.12495690  0.91392703    -0.09450
C1574       C  0.81738936  0.10440110  0.89660692     0.29430
F1575       F  0.77873721  0.08793138  0.90381877    -0.19970
H1576       H  0.80495341  0.08839385  0.85847146     0.17800
H1577       H  0.90795587  0.15387248  0.91854711     0.17800
F1578       F  0.93970784  0.14326880  0.87393118    -0.19960
O1579       O  0.95524637  0.70242664  0.71022121    -0.80220
O1580       O  0.54441575  0.79489823  0.70996655    -0.80250
O1581       O  0.90794073  0.79073550  0.74080999    -0.80250
O1582       O  0.59257310  0.70583393  0.74152647    -0.80200
O1583       O  0.95486996  0.79438746  0.71006848    -0.80320
O1584       O  0.54580817  0.70289975  0.71054865    -0.80240
O1585       O  0.59160076  0.79157612  0.74065837    -0.80220
O1586       O  0.90810740  0.70493662  0.74094771    -0.80260
C1587       C  0.91737929  0.69570404  0.71814532     1.09470
C1588       C  0.58205769  0.80214061  0.71787175     1.09350
C1589       C  0.91713812  0.80104684  0.71800198     1.09490
C1590       C  0.58379860  0.69701478  0.71865876     1.09370
O1591       O  0.54229736  0.65385649  0.75840992    -0.80220
O1592       O  0.95776790  0.84185269  0.75795986    -0.80300
O1593       O  0.95446275  0.70090367  0.78937098    -0.80240
O1594       O  0.54422448  0.79338354  0.78877957    -0.80220
O1595       O  0.54172294  0.84218568  0.75798900    -0.80270
O1596       O  0.95809086  0.65362268  0.75859127    -0.80230
O1597       O  0.54530332  0.70121509  0.78921140    -0.80190
O1598       O  0.95551562  0.79290697  0.78871186    -0.80260
Co1599     Co  0.50030156  0.68405115  0.73460579     1.51530
Co1600     Co  0.99971234  0.81243806  0.73422021     1.51690
Co1601     Co  0.93731993  0.74739097  0.76479112     1.51570
Co1602     Co  0.56264206  0.74800652  0.76489570     1.51470
O1603       O  0.00001300  0.74787358  0.74961464    -1.42160
C1604       C  0.55232707  0.66284490  0.78111622     1.09390
C1605       C  0.94815375  0.83160802  0.78070017     1.09480
C1606       C  0.94748545  0.66257981  0.78129013     1.09420
C1607       C  0.55187574  0.83193899  0.78068569     1.09400
C1608       C  0.88188326  0.60817406  0.83499784     0.03040
C1609       C  0.91121684  0.63643724  0.82203854    -0.13110
C1610       C  0.92014778  0.63088599  0.79601879     0.00540
C1611       C  0.89736622  0.59848620  0.78271684    -0.11630
C1612       C  0.86591485  0.57248566  0.79474762     0.03040
C1613       C  0.86062258  0.57544308  0.82091940    -0.11050
H1614       H  0.92590131  0.66379866  0.83167012     0.08630
H1615       H  0.90134913  0.59618312  0.76237425     0.06160
H1616       H  0.83845937  0.55270774  0.82992510     0.06010
O1617       O  0.84287501  0.53942861  0.75646409    -0.80220
O1618       O  0.65787981  0.95513797  0.75689897    -0.80250
O1619       O  0.70566815  0.54327538  0.78768987    -0.80250
O1620       O  0.79444457  0.95047023  0.78803570    -0.80200
O1621       O  0.65844571  0.54094456  0.75694695    -0.80320
O1622       O  0.84155990  0.95371818  0.75735264    -0.80240
O1623       O  0.70482792  0.95147355  0.78769178    -0.80220
O1624       O  0.79613197  0.54233764  0.78739146    -0.80260
C1625       C  0.83411089  0.54822542  0.77932981     1.09470
C1626       C  0.66706582  0.94490538  0.77971341     1.09350
C1627       C  0.66783686  0.55024120  0.77974329     1.09490
C1628       C  0.83208009  0.94323641  0.78015290     1.09370
O1629       O  0.79400971  0.95208969  0.70919735    -0.80220
O1630       O  0.70488541  0.54486260  0.70858420    -0.80300
O1631       O  0.79273048  0.59147780  0.73953095    -0.80240
O1632       O  0.70770288  0.90383963  0.73992425    -0.80220
O1633       O  0.70534102  0.95271317  0.70911247    -0.80270
O1634       O  0.79560955  0.54416847  0.70870073    -0.80230
O1635       O  0.79161424  0.90323232  0.73995542    -0.80190
O1636       O  0.70859391  0.59209714  0.73939000    -0.80260
Co1637     Co  0.81274570  0.99735338  0.73306933     1.51530
Co1638     Co  0.68744816  0.99838736  0.73305231     1.51690
Co1639     Co  0.75071835  0.56145222  0.76333538     1.51570
Co1640     Co  0.74968883  0.93313480  0.76368869     1.51470
O1641       O  0.75015298  0.99766943  0.74829321    -1.42160
C1642       C  0.80159734  0.91349744  0.71724114     1.09390
C1643       C  0.69790894  0.58315940  0.71670134     1.09480
C1644       C  0.80262729  0.58253032  0.71680856     1.09420
C1645       C  0.69806833  0.91399588  0.71716882     1.09400
C1646       C  0.62305879  0.87440865  0.83346241     0.03040
C1647       C  0.64534287  0.90822380  0.82050873    -0.13110
C1648       C  0.63652581  0.91795216  0.79498108     0.00540
C1649       C  0.60274289  0.89560294  0.78288665    -0.11630
C1650       C  0.58001287  0.86163383  0.79545559     0.03040
C1651       C  0.59035619  0.85140687  0.82077440    -0.11050
H1652       H  0.67065825  0.92610049  0.83001902     0.08630
H1653       H  0.59675858  0.90188825  0.76292320     0.06160
H1654       H  0.57440108  0.82400283  0.83021558     0.06010
C1655       C  0.87788726  0.87202902  0.83389296     0.03040
C1656       C  0.91188719  0.85140820  0.82112444    -0.13110
C1657       C  0.92068916  0.86142498  0.79568540     0.00540
C1658       C  0.89691763  0.89481675  0.78333967    -0.11630
C1659       C  0.86231420  0.91568295  0.79549877     0.03040
C1660       C  0.85301761  0.90402182  0.82086393    -0.11050
H1661       H  0.93058448  0.82606153  0.83072278     0.08630
H1662       H  0.90276533  0.90161553  0.76342030     0.06160
H1663       H  0.82520407  0.91820519  0.83001540     0.06010
C1664       C  0.61864298  0.61257908  0.83463966     0.03040
C1665       C  0.58697422  0.63738164  0.82178302    -0.13110
C1666       C  0.57954145  0.63145719  0.79584438     0.00540
C1667       C  0.60370769  0.59958437  0.78291348    -0.11630
C1668       C  0.63690664  0.57591226  0.79513765     0.03040
C1669       C  0.64382753  0.58232023  0.82112278    -0.11050
H1670       H  0.56945976  0.66269734  0.83173854     0.08630
H1671       H  0.59926185  0.59603791  0.76267147     0.06160
H1672       H  0.66940789  0.56447557  0.83073976     0.06010
C1673       C  0.63137962  0.63666311  0.66326025     0.03040
C1674       C  0.61040428  0.66971369  0.67713235    -0.13110
C1675       C  0.61564899  0.67274461  0.70330813     0.00540
C1676       C  0.64716075  0.64678924  0.71539633    -0.11630
C1677       C  0.67031392  0.61469383  0.70206785     0.03040
C1678       C  0.66145686  0.60912303  0.67606339    -0.11050
H1679       H  0.58868528  0.69267312  0.66791597     0.08630
H1680       H  0.65108326  0.64902528  0.73574940     0.06160
H1681       H  0.67692468  0.58245607  0.66616552     0.06010
C1682       C  0.62729549  0.87364366  0.66418121     0.03040
C1683       C  0.60265080  0.84153207  0.67723649    -0.13110
C1684       C  0.61215985  0.82983235  0.70256425     0.00540
C1685       C  0.64675122  0.85081390  0.71469837    -0.11630
C1686       C  0.67061698  0.88400783  0.70224655     0.03040
C1687       C  0.66189635  0.89369396  0.67675164    -0.11050
H1688       H  0.57489013  0.82715911  0.66808801     0.08630
H1689       H  0.65260306  0.84416444  0.73463997     0.06160
H1690       H  0.68124608  0.91827447  0.66699753     0.06010
C1691       C  0.86772582  0.63403024  0.66309242     0.03040
C1692       C  0.89257442  0.66461740  0.67666104    -0.13110
C1693       C  0.88624583  0.67028669  0.70273552     0.00540
C1694       C  0.85354507  0.64607303  0.71499954    -0.11630
C1695       C  0.82952944  0.61410812  0.70204440     0.03040
C1696       C  0.83675261  0.60844346  0.67606070    -0.11050
H1697       H  0.91758117  0.68326565  0.66705048     0.08630
H1698       H  0.84943975  0.64926818  0.73528465     0.06160
H1699       H  0.81961862  0.58275134  0.66618953     0.06010
C1700       C  0.87227905  0.87160181  0.66423028     0.03040
C1701       C  0.83938848  0.89409244  0.67699093    -0.13110
C1702       C  0.82953800  0.88385080  0.70236189     0.00540
C1703       C  0.85263626  0.85006090  0.71485183    -0.11630
C1704       C  0.88658486  0.82810795  0.70271248     0.03040
C1705       C  0.89530905  0.83822505  0.67718575    -0.11050
H1706       H  0.82294758  0.92122183  0.66755907     0.08630
H1707       H  0.84679943  0.84365883  0.73481318     0.06160
H1708       H  0.92097556  0.82095846  0.66764983     0.06010
C1709       C  0.83047462  0.63535197  0.94004095     0.42370
N1710       N  0.82136729  0.67483690  0.97316390     0.01260
C1711       C  0.64019731  0.69439997  0.04805970    -0.06610
H1712       H  0.61638616  0.71393493  0.94628921     0.06750
C1713       C  0.70924002  0.84183967  0.94945314    -0.06970
Co1714     Co  0.73980372  0.65301602  0.00103595     0.74180
N1715       N  0.66608245  0.69315353  0.97250905    -0.26140
Co1716     Co  0.67020779  0.74262104  0.99933190     0.74070
C1717       C  0.67068331  0.82744802  0.93624912     0.42470
N1718       N  0.80506661  0.80629394  0.97109571     0.00880
N1719       N  0.67719955  0.79014207  0.97078116     0.00980
N1720       N  0.68610792  0.63666814  0.04972535    -0.46990
H1721       H  0.76799359  0.59631100  0.94847019     0.06740
N1722       N  0.69288865  0.65940073  0.97282184     0.01270
N1723       N  0.67671675  0.79174275  0.02643068     0.01010
C1724       C  0.66997954  0.83081809  0.05979499     0.42610
N1725       N  0.83111382  0.77196368  0.97123753    -0.25600
C1726       C  0.78898704  0.62433010  0.05007190    -0.06520
N1727       N  0.84728926  0.66851116  0.95364676    -0.46710
N1728       N  0.65184238  0.79796441  0.04646657    -0.46930
C1729       C  0.82800105  0.63854119  0.06300512     0.42390
N1730       N  0.69198229  0.66085227  0.02883348     0.01260
N1731       N  0.83133785  0.77338088  0.02715018    -0.25620
N1732       N  0.78799472  0.64797660  0.97335843    -0.26110
N1733       N  0.80460896  0.80717483  0.02658868     0.00900
H1734       H  0.88055017  0.75301238  0.05390004     0.06790
H1735       H  0.73219184  0.86906085  0.05111715     0.06820
N1736       N  0.66582275  0.69507035  0.02772559    -0.26160
N1737       N  0.71077377  0.81675483  0.97052182    -0.25780
N1738       N  0.82065403  0.67616965  0.02856906     0.01260
C1739       C  0.65520984  0.65095376  0.93920076     0.42660
C1740       C  0.85518455  0.77370030  0.95010431    -0.07030
N1741       N  0.71033049  0.81825173  0.02601717    -0.25770
H1742       H  0.73274973  0.86625389  0.94373057     0.06810
N1743       N  0.68808455  0.63384047  0.95287156    -0.47000
H1744       H  0.87892814  0.74962916  0.94463015     0.06790
C1745       C  0.84174633  0.81640822  0.06026449     0.42490
C1746       C  0.79107322  0.62144570  0.95328093    -0.06520
Co1747     Co  0.82742298  0.72398341  0.00003347     0.73820
N1748       N  0.80982420  0.83183393  0.95076072    -0.46710
C1749       C  0.65397371  0.65608707  0.06281605     0.42760
N1750       N  0.84596187  0.67065002  0.04855839    -0.46700
Co1751     Co  0.75782943  0.81330739  0.99855770     0.73890
C1752       C  0.70859555  0.84447646  0.04617698    -0.07030
C1753       C  0.64051865  0.69022050  0.95211688    -0.06590
N1754       N  0.78702180  0.64960064  0.02904724    -0.26120
N1755       N  0.65240511  0.79531874  0.95051931    -0.46880
H1756       H  0.61593396  0.71867820  0.05231464     0.06770
C1757       C  0.85643308  0.77655625  0.04780472    -0.07010
Cl1758     Cl  0.74883398  0.73315548  0.99973364    -0.50010
C1759       C  0.84072812  0.81341140  0.93653310     0.42520
H1760       H  0.76558228  0.59977673  0.05575922     0.06730
N1761       N  0.80931157  0.83328063  0.04627237    -0.46720
C1762       C  0.62652624  0.87222024  0.16347021     0.03040
C1763       C  0.64530241  0.90812960  0.17612263    -0.13110
C1764       C  0.63634956  0.91562028  0.20186550     0.00540
C1765       C  0.60597175  0.88939986  0.21417112    -0.11630
C1766       C  0.58838563  0.85269306  0.20226269     0.03040
C1767       C  0.59858171  0.84406855  0.17699311    -0.11050
H1768       H  0.66818273  0.92921742  0.16635924     0.08630
H1769       H  0.59998711  0.89432359  0.23418076     0.06160
H1770       H  0.58574558  0.81482688  0.16816097     0.06010
C1771       C  0.88471556  0.60796857  0.16598857     0.03040
C1772       C  0.91280705  0.63930027  0.17630140    -0.13110
C1773       C  0.92471348  0.63652573  0.20180638     0.00540
C1774       C  0.90802856  0.60211726  0.21728694    -0.11630
C1775       C  0.87807780  0.57216485  0.20777926     0.03040
C1776       C  0.86739988  0.57470938  0.18186078    -0.11050
H1777       H  0.92438296  0.66658387  0.16471755     0.08630
H1778       H  0.91514380  0.60114957  0.23740324     0.06160
H1779       H  0.84414331  0.55181475  0.17423410     0.06010
C1780       C  0.87761048  0.87662647  0.16105667     0.03040
C1781       C  0.85004824  0.90597123  0.17347612    -0.13110
C1782       C  0.85811899  0.91767915  0.19870123     0.00540
C1783       C  0.89380309  0.89919703  0.21151079    -0.11630
C1784       C  0.92001273  0.86784925  0.19979743     0.03040
C1785       C  0.91247204  0.85791610  0.17425021    -0.11050
H1786       H  0.82210184  0.91904348  0.16363699     0.08630
H1787       H  0.89858217  0.90582583  0.23145132     0.06160
H1788       H  0.93193776  0.83318516  0.16505338     0.06010
O1789       O  0.70240470  0.94457736  0.28903218    -0.80220
O1790       O  0.79464271  0.55373364  0.27989930    -0.80250
O1791       O  0.79268053  0.90624725  0.25913294    -0.80250
O1792       O  0.71861816  0.58233136  0.26344529    -0.80200
O1793       O  0.81620760  0.96204281  0.28332533    -0.80320
O1794       O  0.70343591  0.53392687  0.29193935    -0.80240
O1795       O  0.79221710  0.60631854  0.25043474    -0.80220
O1796       O  0.70726815  0.89674912  0.25847428    -0.80260
C1797       C  0.69712785  0.90597828  0.28121589     1.09470
C1798       C  0.80328689  0.59364119  0.27300612     1.09350
C1799       C  0.81144310  0.92094204  0.27902587     1.09490
C1800       C  0.70224068  0.57326143  0.28438325     1.09370
O1801       O  0.66603455  0.53750223  0.24045933    -0.80220
O1802       O  0.83701408  0.95867250  0.23437660    -0.80300
O1803       O  0.70375995  0.94620567  0.21000179    -0.80240
O1804       O  0.81121262  0.53838353  0.21850329    -0.80220
O1805       O  0.86192403  0.53452078  0.24808431    -0.80270
O1806       O  0.65644586  0.95097693  0.24046593    -0.80230
O1807       O  0.71957165  0.56290707  0.21534889    -0.80190
O1808       O  0.78831751  0.94692596  0.20685412    -0.80260
Co1809     Co  0.68625051  0.99181804  0.26522174     1.51530
Co1810     Co  0.80771391  0.00468952  0.25549117     1.51690
Co1811     Co  0.74831775  0.92801734  0.23396943     1.51570
Co1812     Co  0.76243827  0.55189412  0.24258274     1.51470
O1813       O  0.74538977  0.98830330  0.24948138    -1.42160
C1814       C  0.67948679  0.55833664  0.22074642     1.09390
C1815       C  0.82679801  0.94395505  0.21320165     1.09480
C1816       C  0.66591378  0.94155419  0.21763010     1.09420
C1817       C  0.85033844  0.54630354  0.22545281     1.09400
O1818       O  0.58786233  0.78414250  0.26301363    -0.80220
O1819       O  0.91549725  0.70859723  0.25759760    -0.80250
O1820       O  0.95516281  0.80135005  0.28698928    -0.80250
O1821       O  0.56068905  0.70554909  0.27932626    -0.80200
O1822       O  0.90746662  0.79528836  0.25676700    -0.80320
O1823       O  0.61129336  0.70753373  0.24976070    -0.80240
O1824       O  0.96901848  0.68304829  0.28271182    -0.80220
O1825       O  0.53904058  0.79818623  0.29000046    -0.80260
C1826       C  0.57760317  0.79997950  0.28386819     1.09470
C1827       C  0.92895903  0.68800124  0.27740947     1.09350
C1828       C  0.91727063  0.80561435  0.27942271     1.09490
C1829       C  0.59955234  0.69641438  0.27245463     1.09370
O1830       O  0.54329498  0.68963047  0.21795883    -0.80220
O1831       O  0.95287880  0.79942776  0.20806271    -0.80300
O1832       O  0.54466673  0.83683673  0.23732321    -0.80240
O1833       O  0.96711953  0.66246774  0.23477887    -0.80220
O1834       O  0.95228160  0.71027270  0.20588262    -0.80270
O1835       O  0.56827380  0.77997793  0.21405601    -0.80230
O1836       O  0.54061408  0.63750493  0.24761616    -0.80190
O1837       O  0.95879016  0.84842591  0.23788587    -0.80260
Co1838     Co  0.55767910  0.73844837  0.24213370     1.51530
Co1839     Co  0.93624196  0.75327714  0.23234375     1.51690
Co1840     Co  0.49971205  0.81723420  0.26264811     1.51570
Co1841     Co  0.51163414  0.69259087  0.25531121     1.51470
O1842       O  0.49563472  0.75639777  0.24787033    -1.42160
C1843       C  0.55163338  0.64977732  0.22498135     1.09390
C1844       C  0.94745904  0.83820635  0.21547259     1.09480
C1845       C  0.56443079  0.82124192  0.21802207     1.09420
C1846       C  0.95081701  0.67115851  0.21375250     1.09400
C1847       C  0.61762231  0.61511468  0.16797197     0.03040
C1848       C  0.64981158  0.59090072  0.18061543    -0.13110
C1849       C  0.64604015  0.58167081  0.20644520     0.00540
C1850       C  0.60984565  0.59622111  0.21985168    -0.11630
C1851       C  0.57909706  0.62294194  0.20830184     0.03040
C1852       C  0.58285945  0.63227237  0.18206438    -0.11050
H1853       H  0.67799154  0.57973941  0.17046632     0.08630
H1854       H  0.60783979  0.59051038  0.24015755     0.06160
H1855       H  0.55961840  0.65374808  0.17283485     0.06010
C1856       C  0.63252923  0.63273787  0.33171959     0.03040
C1857       C  0.66339322  0.60393192  0.32171821    -0.13110
C1858       C  0.67556139  0.60741949  0.29632428     0.00540
C1859       C  0.65815019  0.64153247  0.28090491    -0.11630
C1860       C  0.62677629  0.67008681  0.29026677     0.03040
C1861       C  0.61464292  0.66582098  0.31593089    -0.11050
H1862       H  0.67750548  0.57825006  0.33352451     0.08630
H1863       H  0.66599868  0.64330990  0.26090458     0.06160
H1864       H  0.58928164  0.68654787  0.32326046     0.06010
C1865       C  0.86909486  0.62948218  0.33004061     0.03040
C1866       C  0.83508910  0.61073078  0.31601620    -0.13110
C1867       C  0.83052186  0.62056466  0.28984602     0.00540
C1868       C  0.86004354  0.64886626  0.27838886    -0.11630
C1869       C  0.89575048  0.66465950  0.29180365     0.03040
C1870       C  0.89989670  0.65558268  0.31762812    -0.11050
H1871       H  0.81322316  0.58779962  0.32524423     0.08630
H1872       H  0.85771486  0.65481158  0.25811256     0.06160
H1873       H  0.92733248  0.66814344  0.32797815     0.06010
C1874       C  0.62989621  0.86583347  0.33633560     0.03040
C1875       C  0.66523917  0.88357826  0.32285360    -0.13110
C1876       C  0.67111337  0.87521332  0.29698616     0.00540
C1877       C  0.64444342  0.84446684  0.28525681    -0.11630
C1878       C  0.60917519  0.82596995  0.29825317     0.02840
C1879       C  0.60145930  0.83762154  0.32349550    -0.11050
H1880       H  0.68721107  0.90599643  0.33199521     0.08630
H1881       H  0.64840161  0.83848489  0.26518229     0.06160
H1882       H  0.57234156  0.82604415  0.33260116     0.06010
C1883       C  0.87205821  0.87119668  0.33440015     0.03040
C1884       C  0.84080988  0.89575292  0.32081414    -0.13110
C1885       C  0.83413200  0.88883574  0.29499374     0.00540
C1886       C  0.85488604  0.85436380  0.28291152    -0.11630
C1887       C  0.88722910  0.83084338  0.29521695     0.03040
C1888       C  0.89627793  0.83973052  0.32087197    -0.11050
H1889       H  0.82185670  0.92098101  0.32976560     0.08630
H1890       H  0.84984304  0.84978287  0.26277326     0.06160
H1891       H  0.92377805  0.82388263  0.32958063     0.06010
C1892       C  0.58337481  0.60719576  0.55818225     0.42370
N1893       N  0.57251618  0.56796821  0.52521239     0.01260
C1894       C  0.89263432  0.55531129  0.44906962    -0.06610
H1895       H  0.86534755  0.53501417  0.55062036     0.06750
C1896       C  0.95575981  0.90417117  0.54791296    -0.06970
Co1897     Co  0.99182789  0.59292323  0.49742203     0.74180
N1898       N  0.91656710  0.55442128  0.52516233    -0.26140
Co1899     Co  0.91974160  0.50516514  0.49817190     0.74070
C1900       C  0.91780372  0.91961408  0.56122444     0.42470
N1901       N  0.55246496  0.93690477  0.52662771     0.00880
N1902       N  0.92508964  0.95700762  0.52672290     0.00980
N1903       N  0.93963993  0.61214468  0.44864832    -0.46990
H1904       H  0.52182797  0.64787413  0.55048790     0.06740
N1905       N  0.94430542  0.58736385  0.52527197     0.01270
N1906       N  0.92488109  0.95600108  0.47101215     0.01010
C1907       C  0.91484943  0.91567037  0.43840720     0.42610
N1908       N  0.57931911  0.97057882  0.52663035    -0.25600
C1909       C  0.54286781  0.62194672  0.44901456    -0.06520
N1910       N  0.59899538  0.57346737  0.54459928    -0.46710
N1911       N  0.89904620  0.95013986  0.45137071    -0.46930
C1912       C  0.58071707  0.60574682  0.43579022     0.42390
N1913       N  0.94423996  0.58717945  0.46936178     0.01260
N1914       N  0.57947792  0.96983616  0.47088431    -0.25620
N1915       N  0.53992374  0.59583203  0.52520640    -0.26110
N1916       N  0.55226608  0.93648859  0.47112669     0.00900
H1917       H  0.63064251  0.98905532  0.44568435     0.06790
H1918       H  0.97579149  0.87493188  0.44687522     0.06820
N1919       N  0.91735823  0.55345953  0.46983229    -0.26160
N1920       N  0.95785276  0.92932662  0.52690242    -0.25780
N1921       N  0.57155542  0.56734783  0.46978608     0.01260
C1922       C  0.90569696  0.59675322  0.55842435     0.42660
C1923       C  0.60349096  0.96798505  0.54770019    -0.07030
N1924       N  0.95724409  0.92789662  0.47148422    -0.25770
H1925       H  0.97864678  0.87909066  0.55358227     0.06810
N1926       N  0.93945505  0.61301321  0.54517421    -0.47000
H1927       H  0.62773660  0.99144079  0.55333007     0.06790
C1928       C  0.59049639  0.92662723  0.43778517     0.42490
C1929       C  0.54405684  0.62213936  0.54529786    -0.06520
Co1930     Co  0.57691479  0.51897274  0.49811294     0.73820
N1931       N  0.55675799  0.91100084  0.54687207    -0.46710
C1932       C  0.90728827  0.59414890  0.43513241     0.42760
N1933       N  0.59647855  0.57163148  0.44959932    -0.46700
Co1934     Co  0.50505666  0.93147647  0.49899444     0.73890
C1935       C  0.95342581  0.90072688  0.45177029    -0.07030
C1936       C  0.89039383  0.55799745  0.54521613    -0.06590
N1937       N  0.53948160  0.59585562  0.46969273    -0.26120
N1938       N  0.90034916  0.95246808  0.54706456    -0.46880
H1939       H  0.86840685  0.53156345  0.44388154     0.06770
C1940       C  0.60525758  0.96625351  0.45067678    -0.07010
Cl1941     Cl  0.49837443  0.51222796  0.49816116    -0.50010
C1942       C  0.58835366  0.92842566  0.56106056     0.42520
H1943       H  0.52038342  0.64737764  0.44326490     0.06730
N1944       N  0.55764267  0.90996151  0.45165880    -0.46720
C1945       C  0.91112608  0.86127655  0.40333221    -0.21390
C1946       C  0.90098315  0.90300623  0.41269941    -0.09430
C1947       C  0.87930686  0.93312132  0.39685139     0.29420
C1948       C  0.87156012  0.92317052  0.37152879    -0.21390
C1949       C  0.88156914  0.88130551  0.36171500    -0.09450
C1950       C  0.90033833  0.84987549  0.37847920     0.29430
F1951       F  0.90733432  0.80767796  0.37142115    -0.19970
H1952       H  0.92667345  0.83698219  0.41547039     0.17800
H1953       H  0.85811720  0.94915293  0.35978031     0.17800
F1954       F  0.86621791  0.97272511  0.40558054    -0.19960
C1955       C  0.59059018  0.86801443  0.40505821    -0.21390
C1956       C  0.60263073  0.91059943  0.41236409    -0.09430
C1957       C  0.62446895  0.93772190  0.39479617     0.29420
C1958       C  0.63220990  0.92322394  0.37025822    -0.21390
C1959       C  0.62069603  0.88039633  0.36280384    -0.09450
C1960       C  0.60016489  0.85262756  0.38080287     0.29430
F1961       F  0.59012405  0.81026631  0.37539639    -0.19970
H1962       H  0.57416858  0.84623926  0.41831126     0.17800
H1963       H  0.64678349  0.94631165  0.35702801     0.17800
F1964       F  0.63777477  0.97873059  0.40086794    -0.19960
C1965       C  0.88221778  0.64508466  0.40063364    -0.21390
C1966       C  0.89828747  0.60382349  0.40822506    -0.09430
C1967       C  0.90426509  0.57099373  0.39002780     0.29420
C1968       C  0.89235460  0.57864048  0.36478359    -0.21390
C1969       C  0.87555004  0.61961379  0.35722819    -0.09450
C1970       C  0.87119796  0.65311219  0.37522509     0.29430
F1971       F  0.85665131  0.69362318  0.36810256    -0.19970
H1972       H  0.87793619  0.67087667  0.41439361     0.17800
H1973       H  0.89785160  0.55324992  0.35091360     0.17800
F1974       F  0.92383520  0.53246969  0.39645567    -0.19960
C1975       C  0.60974190  0.66270957  0.37383593    -0.21390
C1976       C  0.61701542  0.62626621  0.35815833    -0.09430
C1977       C  0.60937641  0.58353008  0.36801151     0.29420
C1978       C  0.59731357  0.57756206  0.39325272    -0.21390
C1979       C  0.59174780  0.61373493  0.40905165    -0.09450
C1980       C  0.59676173  0.65653109  0.39907071     0.29430
F1981       F  0.59054029  0.69214681  0.41390463    -0.19970
H1982       H  0.61499068  0.69593696  0.36671870     0.17800
H1983       H  0.59134670  0.54455787  0.40043847     0.17800
F1984       F  0.61246728  0.54747700  0.35316225    -0.19960
C1985       C  0.60586551  0.84742636  0.11994974    -0.21390
C1986       C  0.63781213  0.86224796  0.13675390    -0.09430
C1987       C  0.68041177  0.86618847  0.12791400     0.29420
C1988       C  0.69018761  0.85718298  0.10269491    -0.21390
C1989       C  0.65832259  0.84219925  0.08602246    -0.09450
C1990       C  0.61606720  0.83690403  0.09493177     0.29430
F1991       F  0.58447885  0.82232669  0.07936881    -0.19970
H1992       H  0.57282880  0.84411377  0.12616133     0.17800
H1993       H  0.72311547  0.86084575  0.09644778     0.17800
F1994       F  0.71306827  0.87687433  0.14379315    -0.19960
C1995       C  0.82887639  0.84115251  0.12968776    -0.21390
C1996       C  0.86812633  0.86201175  0.13503372    -0.09430
C1997       C  0.89914259  0.86648841  0.11577642     0.29420
C1998       C  0.89075967  0.85073726  0.09147426    -0.21390
C1999       C  0.85145690  0.83031953  0.08615550    -0.09450
C2000       C  0.82067447  0.82510758  0.10542969     0.29430
F2001       F  0.78326536  0.80349492  0.10089679    -0.19970
H2002       H  0.80501592  0.83653249  0.14444837     0.17800
H2003       H  0.91462454  0.85506277  0.07670572     0.17800
F2004       F  0.93717008  0.88684269  0.12040697    -0.19960
C2005       C  0.64470734  0.60188164  0.09835382    -0.21390
C2006       C  0.64242443  0.64553090  0.08940468    -0.09430
C2007       C  0.62998043  0.67892743  0.10623888     0.29420
C2008       C  0.62025350  0.66858889  0.13150402    -0.21390
C2009       C  0.62300124  0.62499375  0.14053479    -0.09450
C2010       C  0.63481430  0.59154557  0.12361142     0.29430
F2011       F  0.63681751  0.54881330  0.13152988    -0.19970
H2012       H  0.65407872  0.57571307  0.08573706     0.17800
H2013       H  0.61224819  0.69498313  0.14428940     0.17800
F2014       F  0.62947715  0.72193007  0.09880896    -0.19960
C2015       C  0.88606862  0.63031830  0.09504386    -0.21390
C2016       C  0.84224397  0.62739836  0.08897285    -0.09430
C2017       C  0.81254692  0.61635284  0.10815156     0.29420
C2018       C  0.82667643  0.60915081  0.13303063    -0.21390
C2019       C  0.87055062  0.61258053  0.13921013    -0.09450
C2020       C  0.90025543  0.62260327  0.11984067     0.29430
F2021       F  0.94305357  0.62470846  0.12482969    -0.19970
H2022       H  0.90941514  0.63863946  0.08051637     0.17800
H2023       H  0.80304744  0.60234466  0.14764668     0.17800
F2024       F  0.76968807  0.61491734  0.10327795    -0.19960
C2025       C  0.85187795  0.89510680  0.61999869    -0.21390
C2026       C  0.88415531  0.88494468  0.63789636    -0.09430
C2027       C  0.92760544  0.88844277  0.63046742     0.29420
C2028       C  0.93814977  0.89945396  0.60544949    -0.21390
C2029       C  0.90583003  0.90875240  0.58757956    -0.09450
C2030       C  0.86259479  0.90748861  0.59514165     0.29430
F2031       F  0.83070608  0.91675913  0.57830068    -0.19970
H2032       H  0.81824473  0.89287888  0.62515389     0.17800
H2033       H  0.97176524  0.90158536  0.60017147     0.17800
F2034       F  0.95999820  0.88265471  0.64747993    -0.19960
C2035       C  0.91970856  0.62279068  0.62762000    -0.21390
C2036       C  0.87687004  0.62594639  0.63591271    -0.09430
C2037       C  0.84339323  0.61980451  0.61824172     0.29420
C2038       C  0.85287678  0.61059501  0.59292229    -0.21390
C2039       C  0.89568677  0.60803788  0.58478794    -0.09450
C2040       C  0.92898962  0.61381234  0.60234471     0.29430
F2041       F  0.97043124  0.60785458  0.59535589    -0.19970
H2042       H  0.94611231  0.62590023  0.64088515     0.17800
H2043       H  0.82681629  0.60573054  0.57961352     0.17800
F2044       F  0.80157320  0.62331845  0.62531056    -0.19960
C2045       C  0.60238466  0.85706728  0.62000253    -0.21390
C2046       C  0.61580895  0.88809924  0.63790707    -0.09430
C2047       C  0.61853887  0.93288702  0.63034097     0.29420
C2048       C  0.61052183  0.94553084  0.60521883    -0.21390
C2049       C  0.59795737  0.91432130  0.58733946    -0.09450
C2050       C  0.59296359  0.87007628  0.59505603     0.29430
F2051       F  0.57998522  0.83918241  0.57833527    -0.19970
H2052       H  0.59983003  0.82250381  0.62518422     0.17800
H2053       H  0.61302068  0.98007907  0.59993435     0.17800
F2054       F  0.62758009  0.96483751  0.64730662    -0.19960
C2055       C  0.64985243  0.61274478  0.61870890    -0.21390
C2056       C  0.61969236  0.62976497  0.63597303    -0.09430
C2057       C  0.57802238  0.64000168  0.62675137     0.29420
C2058       C  0.56821078  0.63598977  0.60112966    -0.21390
C2059       C  0.59747839  0.61732629  0.58430393    -0.09450
C2060       C  0.63858032  0.60552205  0.59332577     0.29430
F2061       F  0.66804645  0.58745182  0.57759972    -0.19970
H2062       H  0.68224986  0.60484065  0.62474347     0.17800
H2063       H  0.53670397  0.64597256  0.59473079     0.17800
F2064       F  0.54547378  0.65154795  0.64244807    -0.19960
C2065       C  0.60335963  0.63331510  0.90489282    -0.21390
C2066       C  0.64589477  0.63988243  0.91275497    -0.09430
C2067       C  0.67928640  0.63798721  0.89494760     0.29420
C2068       C  0.67034675  0.62826847  0.86968576    -0.21390
C2069       C  0.62779438  0.62107373  0.86171804    -0.09450
C2070       C  0.59425799  0.62379657  0.87957685     0.29430
F2071       F  0.55280550  0.61666125  0.87263496    -0.19970
H2072       H  0.57725633  0.63531760  0.91841005     0.17800
H2073       H  0.69654760  0.62773775  0.85616670     0.17800
F2074       F  0.72010607  0.64832812  0.90170372    -0.19960
C2075       C  0.86871368  0.81203227  0.86667768    -0.21390
C2076       C  0.86685064  0.85720103  0.86013822    -0.09430
C2077       C  0.85554503  0.88747749  0.87897353     0.29420
C2078       C  0.84706902  0.87278350  0.90373366    -0.21390
C2079       C  0.85044168  0.82790807  0.91033291    -0.09450
C2080       C  0.86093867  0.79747640  0.89150063     0.29430
F2081       F  0.86221126  0.75355984  0.89675135    -0.19970
H2082       H  0.87596108  0.78771853  0.85246391     0.17800
H2083       H  0.83859806  0.89669453  0.91794390     0.17800
F2084       F  0.85410319  0.93138343  0.87375727    -0.19960
C2085       C  0.60375658  0.84987093  0.87761776    -0.21390
C2086       C  0.63555600  0.86135120  0.85973258    -0.09430
C2087       C  0.67915531  0.85966290  0.86715474     0.29420
C2088       C  0.69018859  0.84916776  0.89216179    -0.21390
C2089       C  0.65829865  0.83851746  0.91000577    -0.09450
C2090       C  0.61502388  0.83790268  0.90243614     0.29430
F2091       F  0.58355045  0.82697109  0.91920064    -0.19970
H2092       H  0.57004170  0.85071146  0.87249581     0.17800
H2093       H  0.72388039  0.84834117  0.89740699     0.17800
F2094       F  0.71130527  0.86666144  0.85015634    -0.19960
C2095       C  0.82905215  0.60106304  0.87119981    -0.21390
C2096       C  0.87010393  0.61425574  0.86244604    -0.09430
C2097       C  0.89877817  0.63237095  0.88032448     0.29420
C2098       C  0.88574127  0.63861564  0.90550162    -0.21390
C2099       C  0.84486606  0.62495690  0.91392703    -0.09450
C2100       C  0.81738935  0.60440110  0.89660692     0.29430
F2101       F  0.77873719  0.58793137  0.90381877    -0.19970
H2102       H  0.80495341  0.58839385  0.85847146     0.17800
H2103       H  0.90795586  0.65387247  0.91854711     0.17800
F2104       F  0.93970783  0.64326880  0.87393118    -0.19960
loop_ 
_geom_bond_atom_site_label_1 
_geom_bond_atom_site_label_2 
_geom_bond_distance 
_geom_bond_site_symmetry_2 
_ccdc_geom_bond_type 
O1            C9   1.265       .  A
O1        Co1073   1.975       .  S
O2           C10   1.262       .  A
O2        Co1074   1.968   1_455  S
O3           C11   1.272       .  A
O3          Co23   2.028       .  S
O4           C12   1.269       .  A
O4          Co24   2.017       .  S
O5           C11   1.263       .  A
O5          Co22   1.970       .  S
O6           C12   1.267       .  A
O6          Co21   1.980       .  S
O7           C10   1.274       .  A
O7          Co24   2.036       .  S
O8            C9   1.272       .  A
O8          Co23   2.027       .  S
C9          C115   1.486       .  S
C10         C106   1.488       .  S
C11         C126   1.485       .  S
C12          C97   1.482       .  S
O13          C26   1.271       .  A
O13         Co21   2.021       .  S
O14          C27   1.271       .  A
O14         Co22   2.025       .  S
O15          C28   1.263       .  A
O15         Co23   1.975       .  S
O16          C29   1.262       .  A
O16         Co24   1.965       .  S
O17          C29   1.272       .  A
O17       Co1074   2.030   1_455  S
O18          C28   1.275       .  A
O18       Co1073   2.036       .  S
O19          C26   1.265       .  A
O19         Co24   1.975       .  S
O20          C27   1.263       .  A
O20         Co23   1.967       .  S
Co21       O1053   1.975   1_455  S
Co21       O1070   2.036   1_455  S
Co21       O1077   2.102       .  S
Co22       O1054   1.968       .  S
Co22       O1069   2.030       .  S
Co22         O25   2.110       .  S
Co23         O25   2.107       .  S
Co24       O1077   2.106       .  S
O25       Co1073   2.102       .  S
O25       Co1076   2.106       .  S
C26          C88   1.484       .  S
C27          C79   1.481       .  S
C28          C32   1.493       .  S
C29          C72   1.484       .  S
C30         C518   1.508       .  S
C30          C31   1.421       .  A
C30          C35   1.412       .  A
C31          C32   1.413       .  A
C31          H36   1.080       .  S
C32          C33   1.407       .  A
C33          C34   1.403       .  A
C33          H37   1.084       .  S
C34          C47   1.482       .  S
C34          C35   1.395       .  A
C35          H38   1.080       .  S
O39          C47   1.269       .  A
O39        Co585   2.018   1_545  S
O40          C48   1.271       .  A
O40         Co60   2.026       .  S
O41          C49   1.265       .  A
O41         Co61   1.974       .  S
O42          C50   1.262       .  A
O42         Co62   1.969       .  S
O43          C49   1.273       .  A
O43        Co586   2.029   1_545  S
O44          C50   1.274       .  A
O44         Co59   2.036       .  S
O45          C48   1.263       .  A
O45         Co62   1.970       .  S
O46          C47   1.267       .  A
O46         Co61   1.979       .  S
C48          C70   1.483       .  S
C49          C90   1.487       .  S
C50          C81   1.489       .  S
O51          C64   1.262       .  A
O51         Co59   1.964       .  S
O52          C65   1.263       .  A
O52        Co586   1.974   1_545  S
O53          C66   1.271       .  A
O53         Co61   2.020       .  S
O54          C67   1.270       .  A
O54         Co62   2.023       .  S
O55          C67   1.264       .  A
O55         Co60   1.969       .  S
O56          C66   1.265       .  A
O56        Co585   1.975   1_545  S
O57          C64   1.272       .  A
O57         Co62   2.031       .  S
O58          C65   1.275       .  A
O58         Co61   2.034       .  S
Co59        O565   2.018       .  S
Co59        O582   1.975       .  S
Co59         O63   2.105       .  S
Co60        O569   2.029       .  S
Co60        O578   1.974       .  S
Co60         O63   2.108       .  S
Co61        O589   2.102   1_545  S
Co62         O63   2.109       .  S
O63        Co587   2.102       .  S
C64         C124   1.483       .  S
C65          C99   1.491       .  S
C66         C117   1.484       .  S
C67         C108   1.481       .  S
C68         C508   1.487       .  S
C68          C69   1.407       .  A
C68          C73   1.407       .  A
C69          C70   1.401       .  A
C69          H74   1.083       .  S
C70          C71   1.407       .  A
C71          C72   1.408       .  A
C71          H75   1.083       .  S
C72          C73   1.404       .  A
C73          H76   1.083       .  S
C77         C498   1.490       .  S
C77          C78   1.405       .  A
C77          C82   1.411       .  A
C78          C79   1.399       .  A
C78          H83   1.083       .  S
C79          C80   1.406       .  A
C80          C81   1.408       .  A
C80          H84   1.083       .  S
C81          C82   1.409       .  A
C82          H85   1.083       .  S
C86         C491   1.482       .  S
C86          C87   1.407       .  A
C86          C91   1.408       .  A
C87          C88   1.401       .  A
C87          H92   1.084       .  S
C88          C89   1.409       .  A
C89          C90   1.408       .  A
C89          H93   1.083       .  S
C90          C91   1.404       .  A
C91          H94   1.084       .  S
C95         C478   1.502       .  S
C95          C96   1.410       .  A
C95         C100   1.418       .  A
C96          C97   1.395       .  A
C96         H101   1.080       .  S
C97          C98   1.404       .  A
C98          C99   1.407       .  A
C98         H102   1.083       .  S
C99         C100   1.411       .  A
C100        H103   1.082       .  S
C104        C468   1.491       .  S
C104        C105   1.411       .  A
C104        C109   1.406       .  A
C105        C106   1.409       .  A
C105        H110   1.083       .  S
C106        C107   1.407       .  A
C107        C108   1.406       .  A
C107        H111   1.083       .  S
C108        C109   1.399       .  A
C109        H112   1.083       .  S
C113        C458   1.486       .  S
C113        C114   1.410       .  A
C113        C118   1.408       .  A
C114        C115   1.403       .  A
C114        H119   1.083       .  S
C115        C116   1.407       .  A
C116        C117   1.408       .  A
C116        H120   1.083       .  S
C117        C118   1.402       .  A
C118        H121   1.083       .  S
C122        C448   1.488       .  S
C122        C123   1.406       .  A
C122        C127   1.409       .  A
C123        C124   1.404       .  A
C123        H128   1.083       .  S
C124        C125   1.407       .  A
C125        C126   1.407       .  A
C125        H129   1.083       .  S
C126        C127   1.403       .  A
C127        H130   1.083       .  S
C131        C168   1.469       .  S
C131        C521   1.487       .  S
C131        N149   1.349       .  A
N132        N149   1.324       .  A
N132        N154   1.319       .  A
N132       Co169   2.080   1_556  S
C133        C171   1.454       .  S
C133        H178   1.080       .  S
C133        N158   1.336       .  A
H134        C175   1.081       .  S
C135        C139   1.456       .  S
C135        H164   1.081       .  S
C135        N159   1.339       .  A
Co136       N154   2.100   1_554  S
Co136       N144   2.090   1_554  S
Co136       N176   2.083       .  S
Co136       N152   2.105       .  S
Co136      Cl180   2.447   1_554  S
N137        C175   1.341       .  A
N137        N144   1.320       .  A
N137       Co138   2.081       .  S
Co138       N141   2.081       .  S
Co138       N158   2.069   1_556  S
Co138       N145   2.089   1_556  S
Co138      Cl180   2.461       .  S
C139        C511   1.471       .  S
C139        N177   1.349       .  A
N140        N147   1.319       .  A
N140        N170   1.323       .  A
N140       Co173   2.077       .  S
N141        N159   1.319       .  A
N141        N177   1.325       .  A
N142        C171   1.354       .  A
N142        N152   1.328       .  A
H143        C168   1.080       .  S
N144        N165   1.324       .  A
N145        N163   1.318       .  A
N145        N150   1.326       .  A
C146        C174   1.456       .  S
C146        C411   1.476       .  S
C146        N150   1.351       .  A
N147        C162   1.343       .  A
N147       Co169   2.092   1_556  S
C148        C151   1.459       .  S
C148        H182   1.081       .  S
C148        N176   1.340       .  A
C151        C438   1.474       .  S
C151        N172   1.349       .  A
N152        N158   1.319       .  A
N153        C179   1.344       .  A
N153        N155   1.320       .  A
N153       Co169   2.090       .  S
N154        C168   1.343       .  A
N155        N183   1.323       .  A
N155       Co173   2.079   1_554  S
H156        C179   1.081       .  S
H157        C174   1.080       .  S
N159       Co173   2.081       .  S
N160        N172   1.324       .  A
N160        N176   1.320       .  A
N160       Co169   2.086       .  S
C161        C175   1.455       .  S
C161        C488   1.468       .  S
C161        N165   1.350       .  A
C162        C181   1.463       .  S
C162        H166   1.081       .  S
N163        C174   1.338       .  A
N163       Co173   2.076   1_554  S
C167        C179   1.458       .  S
C167        C421   1.466       .  S
C167        N183   1.346       .  A
Co169      Cl180   2.458   1_554  S
N170        C181   1.346       .  A
C171        C428   1.479       .  S
Co173      Cl180   2.448       .  S
C181        C501   1.476       .  S
C184        C408   1.488       .  S
C184        C185   1.412       .  A
C184        C189   1.406       .  A
C185        C186   1.408       .  A
C185        H190   1.082       .  S
C186        C238   1.474       .  S
C186        C187   1.390       .  A
C187        C188   1.397       .  A
C187        H191   1.084       .  S
C188        C267   1.461       .  S
C188        C189   1.399       .  A
C189        H192   1.084       .  S
C193        C441   1.484       .  S
C193        C194   1.406       .  A
C193        C198   1.409       .  A
C194        C195   1.396       .  A
C194        H199   1.083       .  S
C195        C268   1.476       .  S
C195        C196   1.415       .  A
C196        C197   1.399       .  A
C196        H200   1.084       .  S
C197        C239   1.486       .  S
C197        C198   1.408       .  A
C198        H201   1.084       .  S
C202        C418   1.478       .  S
C202        C203   1.405       .  A
C202        C207   1.403       .  A
C203        C204   1.404       .  A
C203        H208   1.084       .  S
C204        C237   1.479       .  S
C204        C205   1.410       .  A
C205        C206   1.403       .  A
C205        H209   1.084       .  S
C206        C266   1.482       .  S
C206        C207   1.405       .  A
C207        H210   1.084       .  S
O211        C219   1.258       .  A
O211       Co231   1.957       .  S
O212        C220   1.288       .  A
O212       Co758   2.023       .  S
O213        C221   1.285       .  A
O213       Co233   2.018       .  S
O214        C222   1.244       .  A
O214       Co234   1.988       .  S
O215        C221   1.279       .  A
O215       Co232   1.961       .  S
O216        C222   1.253       .  A
O216       Co757   1.988   1_545  S
O217        C220   1.292       .  A
O217       Co234   1.942       .  S
O218        C219   1.276       .  A
O218       Co233   2.041       .  S
C219        C298   1.482       .  S
C220        C289   1.481       .  S
C221        C307   1.460       .  S
C222        C280   1.476       .  S
O223        C236   1.280       .  A
O223       Co757   1.992   1_545  S
O224        C237   1.250       .  A
O224       Co232   2.016       .  S
O225        C238   1.251       .  A
O225       Co233   1.949       .  S
O226        C239   1.293       .  A
O226       Co234   2.024       .  S
O227        C239   1.292       .  A
O227       Co758   1.950       .  S
O228        C238   1.277       .  A
O228       Co231   2.035       .  S
O229        C236   1.285       .  A
O229       Co234   1.983       .  S
O230        C237   1.245       .  A
O230       Co233   1.975       .  S
Co231       O742   1.988       .  S
Co231       O749   1.992       .  S
Co231       O235   2.021       .  S
Co232       O738   2.023       .  S
Co232       O753   1.950       .  S
Co232       O235   2.026       .  S
Co233       O235   2.016       .  S
Co234       O761   2.029   1_545  S
O235       Co760   2.029       .  S
C236        C271   1.461       .  S
O240        C248   1.248       .  A
O240       Co260   2.014       .  S
O241        C249   1.280       .  A
O241       Co261   1.994       .  S
O242        C250   1.249       .  A
O242      Co1314   1.945       .  S
O243        C251   1.293       .  A
O243       Co263   2.023       .  S
O244        C250   1.276       .  A
O244       Co261   2.033       .  S
O245        C251   1.292       .  A
O245       Co260   1.951       .  S
O246        C249   1.284       .  A
O246      Co1315   1.980       .  S
O247        C248   1.243       .  A
O247       Co262   1.970   1_455  S
C248        C300   1.475       .  S
C249        C291   1.459       .  S
C250        C309   1.474       .  S
C251        C282   1.488       .  S
O252        C265   1.286       .  A
O252       Co260   2.018       .  S
O253        C266   1.256       .  A
O253       Co261   1.954       .  S
O254        C267   1.286       .  A
O254       Co262   2.018   1_455  S
O255        C268   1.244       .  A
O255      Co1315   1.987       .  S
O256        C268   1.252       .  A
O256       Co261   1.988       .  S
O257        C267   1.278       .  A
O257       Co260   1.959       .  S
O258        C265   1.292       .  A
O258       Co263   1.947       .  S
O259        C266   1.276       .  A
O259      Co1314   2.045       .  S
Co260       O264   2.028   1_455  S
Co261      O1316   2.022       .  S
Co262      O1294   1.945       .  S
Co262      O1311   2.045       .  S
Co262       O264   2.018       .  S
Co263      O1298   1.980   1_455  S
Co263      O1307   1.987   1_455  S
Co263       O264   2.031   1_455  S
O264      Co1313   2.022       .  S
C265        C273   1.479       .  S
C269        C431   1.483       .  S
C269        C270   1.404       .  A
C269        C274   1.415       .  A
C270        C271   1.392       .  A
C270        H275   1.084       .  S
C271        C272   1.404       .  A
C272        C273   1.388       .  A
C272        H276   1.084       .  S
C273        C274   1.414       .  A
C274        H277   1.083       .  S
C278        C398   1.486       .  S
C278        C279   1.406       .  A
C278        C283   1.409       .  A
C279        C280   1.395       .  A
C279        H284   1.083       .  S
C280        C281   1.414       .  A
C281        C282   1.399       .  A
C281        H285   1.084       .  S
C282        C283   1.410       .  A
C283        H286   1.083       .  S
C287        C391   1.474       .  S
C287        C288   1.414       .  A
C287        C292   1.399       .  A
C288        C289   1.415       .  A
C288        H293   1.083       .  S
C289        C290   1.389       .  A
C290        C291   1.404       .  A
C290        H294   1.084       .  S
C291        C292   1.392       .  A
C292        H295   1.084       .  S
C296        C381   1.498       .  S
C296        C297   1.412       .  A
C296        C301   1.410       .  A
C297        C298   1.404       .  A
C297        H302   1.082       .  S
C298        C299   1.398       .  A
C299        C300   1.406       .  A
C299        H303   1.084       .  S
C300        C301   1.403       .  A
C301        H304   1.081       .  S
C305        C371   1.506       .  S
C305        C306   1.413       .  A
C305        C310   1.417       .  A
C306        C307   1.396       .  A
C306        H311   1.080       .  S
C307        C308   1.391       .  A
C308        C309   1.388       .  A
C308        H312   1.085       .  S
C309        C310   1.412       .  A
C310        H313   1.080       .  S
C314        C351   1.466       .  S
C314        C481   1.482       .  S
C314        N332   1.348       .  A
N315        N332   1.324       .  A
N315        N337   1.319       .  A
N315       Co352   2.082       .  S
C316        C354   1.453       .  S
C316        H361   1.080       .  S
C316        N341   1.338       .  A
H317        C358   1.081       .  S
C318        C322   1.454       .  S
C318        H347   1.081       .  S
C318        N342   1.338       .  A
Co319       N327   2.089       .  S
Co319       N335   2.101       .  S
Co319      N1389   2.095       .  S
Co319      N1411   2.084       .  S
Co319     Cl1415   2.456       .  S
N320        C358   1.341       .  A
N320        N327   1.320       .  A
N320       Co321   2.081       .  S
Co321       N341   2.079       .  S
Co321       N850   2.090   1_545  S
Co321       N854   2.089   1_545  S
Co321     Cl1415   2.453       .  S
C322        C451   1.472       .  S
C322        N360   1.350       .  A
N323        N330   1.319       .  A
N323        N353   1.323       .  A
N323       Co356   2.080       .  S
N324        N342   1.320       .  A
N324        N360   1.326       .  A
N324       Co847   2.090       .  S
N325        C354   1.352       .  A
N325        N335   1.328       .  A
H326        C351   1.081       .  S
N327        N348   1.324       .  A
N328        N346   1.319       .  A
N328        N333   1.324       .  A
N328       Co847   2.089       .  S
C329        C357   1.459       .  S
C329        C368   1.479       .  S
C329        N333   1.350       .  A
N330        C345   1.342       .  A
N330       Co878   2.088       .  S
C331        C334   1.457       .  S
C331        H365   1.081       .  S
C331        N359   1.343       .  A
C334        C401   1.469       .  S
C334        N355   1.349       .  A
N335        N341   1.321       .  A
N336        C362   1.340       .  A
N336        N338   1.319       .  A
N336       Co878   2.086       .  S
N337        C351   1.342       .  A
N337      Co1371   2.095   1_455  S
N338        N366   1.324       .  A
N338       Co356   2.082       .  S
H339        C362   1.080       .  S
H340        C357   1.081       .  S
N342      Co1408   2.080       .  S
N343        N355   1.322       .  A
N343        N359   1.320       .  A
N343       Co352   2.086       .  S
C344        C358   1.455       .  S
C344        C461   1.470       .  S
C344        N348   1.351       .  A
C345        C364   1.461       .  S
C345        H349   1.081       .  S
N346        C357   1.341       .  A
N346      Co1408   2.080       .  S
C350        C362   1.463       .  S
C350        C378   1.482       .  S
C350        N366   1.351       .  A
Co352       N856   2.088   1_545  S
Co352       N862   2.086   1_545  S
Co352      Cl363   2.450   1_455  S
N353        C364   1.347       .  A
C354        C388   1.472       .  S
Co356      N1394   2.080   1_455  S
Co356      N1398   2.080   1_455  S
Co356      Cl889   2.458   1_455  S
N359      Co1371   2.084   1_455  S
Cl363     Co1371   2.456       .  S
Cl363     Co1373   2.453       .  S
Cl363      Co882   2.458   1_645  S
C364        C471   1.475       .  S
C367        C368   1.402       .  A
C367        C372   1.401       .  A
C367        H374   1.083       .  S
C368        C369   1.402       .  A
C369        C370   1.394       .  A
C369        F376   1.355       .  S
C370        C371   1.413       .  A
C370        H375   1.080       .  S
C371        C372   1.416       .  A
C372        F373   1.356       .  S
C377        C378   1.404       .  A
C377        C382   1.400       .  A
C377        H384   1.083       .  S
C378        C379   1.406       .  A
C379        C380   1.394       .  A
C379        F386   1.354       .  S
C380        C381   1.409       .  A
C380        H385   1.081       .  S
C381        C382   1.413       .  A
C382        F383   1.357       .  S
C387        C388   1.401       .  A
C387        C392   1.401       .  A
C387        H394   1.083       .  S
C388        C389   1.406       .  A
C389        C390   1.398       .  A
C389        F396   1.356       .  S
C390        C391   1.401       .  A
C390        H395   1.084       .  S
C391        C392   1.407       .  A
C392        F393   1.357       .  S
C397        C398   1.409       .  A
C397        C402   1.401       .  A
C397        H404   1.083       .  S
C398        C399   1.410       .  A
C399        C400   1.393       .  A
C399        F406   1.358       .  S
C400        C401   1.398       .  A
C400        H405   1.082       .  S
C401        C402   1.403       .  A
C402        F403   1.357       .  S
C407        C408   1.408       .  A
C407        C412   1.399       .  A
C407        H414   1.082       .  S
C408        C409   1.409       .  A
C409        C410   1.396       .  A
C409        F416   1.358       .  S
C410        C411   1.404       .  A
C410        H415   1.081       .  S
C411        C412   1.404       .  A
C412        F413   1.357       .  S
C417        C418   1.404       .  A
C417        C422   1.399       .  A
C417        H424   1.083       .  S
C418        C419   1.406       .  A
C419        C420   1.399       .  A
C419        F426   1.357       .  S
C420        C421   1.400       .  A
C420        H425   1.083       .  S
C421        C422   1.404       .  A
C422        F423   1.358       .  S
C427        C428   1.401       .  A
C427        C432   1.399       .  A
C427        H434   1.083       .  S
C428        C429   1.411       .  A
C429        C430   1.398       .  A
C429        F436   1.357       .  S
C430        C431   1.402       .  A
C430        H435   1.083       .  S
C431        C432   1.410       .  A
C432        F433   1.358       .  S
C437        C438   1.402       .  A
C437        C442   1.397       .  A
C437        H444   1.083       .  S
C438        C439   1.407       .  A
C439        C440   1.398       .  A
C439        F446   1.357       .  S
C440        C441   1.406       .  A
C440        H445   1.083       .  S
C441        C442   1.408       .  A
C442        F443   1.357       .  S
C447        C448   1.408       .  A
C447        C452   1.399       .  A
C447        H454   1.082       .  S
C448        C449   1.410       .  A
C449        C450   1.396       .  A
C449        F456   1.358       .  S
C450        C451   1.403       .  A
C450        H455   1.083       .  S
C451        C452   1.402       .  A
C452        F453   1.357       .  S
C457        C458   1.406       .  A
C457        C462   1.395       .  A
C457        H464   1.083       .  S
C458        C459   1.410       .  A
C459        C460   1.400       .  A
C459        F466   1.357       .  S
C460        C461   1.401       .  A
C460        H465   1.083       .  S
C461        C462   1.401       .  A
C462        F463   1.353       .  S
C467        C468   1.406       .  A
C467        C472   1.399       .  A
C467        H474   1.083       .  S
C468        C469   1.413       .  A
C469        C470   1.396       .  A
C469        F476   1.358       .  S
C470        C471   1.401       .  A
C470        H475   1.083       .  S
C471        C472   1.406       .  A
C472        F473   1.357       .  S
C477        C478   1.411       .  A
C477        C482   1.404       .  A
C477        H484   1.082       .  S
C478        C479   1.416       .  A
C479        C480   1.392       .  A
C479        F486   1.357       .  S
C480        C481   1.397       .  A
C480        H485   1.078       .  S
C481        C482   1.407       .  A
C482        F483   1.357       .  S
C487        C488   1.400       .  A
C487        C492   1.399       .  A
C487        H494   1.083       .  S
C488        C489   1.402       .  A
C489        C490   1.397       .  A
C489        F496   1.355       .  S
C490        C491   1.405       .  A
C490        H495   1.083       .  S
C491        C492   1.409       .  A
C492        F493   1.357       .  S
C497        C498   1.409       .  A
C497        C502   1.397       .  A
C497        H504   1.083       .  S
C498        C499   1.408       .  A
C499        C500   1.399       .  A
C499        F506   1.357       .  S
C500        C501   1.404       .  A
C500        H505   1.083       .  S
C501        C502   1.404       .  A
C502        F503   1.357       .  S
C507        C508   1.407       .  A
C507        C512   1.398       .  A
C507        H514   1.082       .  S
C508        C509   1.411       .  A
C509        C510   1.395       .  A
C509        F516   1.358       .  S
C510        C511   1.402       .  A
C510        H515   1.083       .  S
C511        C512   1.403       .  A
C512        F513   1.357       .  S
C517        C518   1.413       .  A
C517        C522   1.394       .  A
C517        H524   1.080       .  S
C518        C519   1.414       .  A
C519        C520   1.404       .  A
C519        F526   1.356       .  S
C520        C521   1.407       .  A
C520        H525   1.083       .  S
C521        C522   1.403       .  A
C522        F523   1.354       .  S
O527        C535   1.265       .  A
O527      Co1599   1.975       .  S
O528        C536   1.262       .  A
O528      Co1600   1.968   1_455  S
O529        C537   1.272       .  A
O529       Co549   2.028       .  S
O530        C538   1.269       .  A
O530       Co550   2.017       .  S
O531        C537   1.263       .  A
O531       Co548   1.970       .  S
O532        C538   1.267       .  A
O532       Co547   1.980       .  S
O533        C536   1.274       .  A
O533       Co550   2.036       .  S
O534        C535   1.272       .  A
O534       Co549   2.027       .  S
C535        C641   1.486       .  S
C536        C632   1.488       .  S
C537        C652   1.485       .  S
C538        C623   1.482       .  S
O539        C552   1.271       .  A
O539       Co547   2.021       .  S
O540        C553   1.271       .  A
O540       Co548   2.025       .  S
O541        C554   1.263       .  A
O541       Co549   1.975       .  S
O542        C555   1.262       .  A
O542       Co550   1.965       .  S
O543        C555   1.272       .  A
O543      Co1600   2.030   1_455  S
O544        C554   1.275       .  A
O544      Co1599   2.036       .  S
O545        C552   1.265       .  A
O545       Co550   1.975       .  S
O546        C553   1.263       .  A
O546       Co549   1.967       .  S
Co547      O1579   1.975   1_455  S
Co547      O1596   2.036   1_455  S
Co547      O1603   2.102       .  S
Co548      O1580   1.968       .  S
Co548      O1595   2.030       .  S
Co548       O551   2.110       .  S
Co549       O551   2.107       .  S
Co550      O1603   2.106       .  S
O551      Co1599   2.102       .  S
O551      Co1602   2.106       .  S
C552        C614   1.484       .  S
C553        C605   1.481       .  S
C554        C558   1.493       .  S
C555        C598   1.484       .  S
C556       C1044   1.508       .  S
C556        C557   1.421       .  A
C556        C561   1.412       .  A
C557        C558   1.413       .  A
C557        H562   1.080       .  S
C558        C559   1.407       .  A
C559        C560   1.403       .  A
C559        H563   1.084       .  S
C560        C573   1.482       .  S
C560        C561   1.395       .  A
C561        H564   1.080       .  S
O565        C573   1.269       .  A
O566        C574   1.271       .  A
O566       Co586   2.026       .  S
O567        C575   1.265       .  A
O567       Co587   1.974       .  S
O568        C576   1.262       .  A
O568       Co588   1.969       .  S
O569        C575   1.273       .  A
O570        C576   1.274       .  A
O570       Co585   2.036       .  S
O571        C574   1.263       .  A
O571       Co588   1.970       .  S
O572        C573   1.267       .  A
O572       Co587   1.979       .  S
C574        C596   1.483       .  S
C575        C616   1.487       .  S
C576        C607   1.489       .  S
O577        C590   1.262       .  A
O577       Co585   1.964       .  S
O578        C591   1.263       .  A
O579        C592   1.271       .  A
O579       Co587   2.020       .  S
O580        C593   1.270       .  A
O580       Co588   2.023       .  S
O581        C593   1.264       .  A
O581       Co586   1.969       .  S
O582        C592   1.265       .  A
O583        C590   1.272       .  A
O583       Co588   2.031       .  S
O584        C591   1.275       .  A
O584       Co587   2.034       .  S
Co585       O589   2.105       .  S
Co586       O589   2.108       .  S
Co588       O589   2.109       .  S
C590        C650   1.483       .  S
C591        C625   1.491       .  S
C592        C643   1.484       .  S
C593        C634   1.481       .  S
C594       C1034   1.487       .  S
C594        C595   1.407       .  A
C594        C599   1.407       .  A
C595        C596   1.401       .  A
C595        H600   1.083       .  S
C596        C597   1.407       .  A
C597        C598   1.408       .  A
C597        H601   1.083       .  S
C598        C599   1.404       .  A
C599        H602   1.083       .  S
C603       C1024   1.490       .  S
C603        C604   1.405       .  A
C603        C608   1.411       .  A
C604        C605   1.399       .  A
C604        H609   1.083       .  S
C605        C606   1.406       .  A
C606        C607   1.408       .  A
C606        H610   1.083       .  S
C607        C608   1.409       .  A
C608        H611   1.083       .  S
C612       C1017   1.482       .  S
C612        C613   1.407       .  A
C612        C617   1.408       .  A
C613        C614   1.401       .  A
C613        H618   1.084       .  S
C614        C615   1.409       .  A
C615        C616   1.408       .  A
C615        H619   1.083       .  S
C616        C617   1.404       .  A
C617        H620   1.084       .  S
C621       C1004   1.502       .  S
C621        C622   1.410       .  A
C621        C626   1.418       .  A
C622        C623   1.395       .  A
C622        H627   1.080       .  S
C623        C624   1.404       .  A
C624        C625   1.407       .  A
C624        H628   1.083       .  S
C625        C626   1.411       .  A
C626        H629   1.082       .  S
C630        C994   1.491       .  S
C630        C631   1.411       .  A
C630        C635   1.406       .  A
C631        C632   1.409       .  A
C631        H636   1.083       .  S
C632        C633   1.407       .  A
C633        C634   1.406       .  A
C633        H637   1.083       .  S
C634        C635   1.399       .  A
C635        H638   1.083       .  S
C639        C984   1.486       .  S
C639        C640   1.410       .  A
C639        C644   1.408       .  A
C640        C641   1.403       .  A
C640        H645   1.083       .  S
C641        C642   1.407       .  A
C642        C643   1.408       .  A
C642        H646   1.083       .  S
C643        C644   1.402       .  A
C644        H647   1.083       .  S
C648        C974   1.488       .  S
C648        C649   1.406       .  A
C648        C653   1.409       .  A
C649        C650   1.404       .  A
C649        H654   1.083       .  S
C650        C651   1.407       .  A
C651        C652   1.407       .  A
C651        H655   1.083       .  S
C652        C653   1.403       .  A
C653        H656   1.083       .  S
C657        C694   1.469       .  S
C657       C1047   1.487       .  S
C657        N675   1.349       .  A
N658        N675   1.324       .  A
N658        N680   1.319       .  A
N658       Co695   2.080   1_556  S
C659        C697   1.454       .  S
C659        H704   1.080       .  S
C659        N684   1.336       .  A
H660        C701   1.081       .  S
C661        C665   1.456       .  S
C661        H690   1.081       .  S
C661        N685   1.339       .  A
Co662       N680   2.100   1_554  S
Co662       N670   2.090   1_554  S
Co662       N702   2.083       .  S
Co662       N678   2.105       .  S
Co662      Cl706   2.447   1_554  S
N663        C701   1.341       .  A
N663        N670   1.320       .  A
N663       Co664   2.081       .  S
Co664       N667   2.081       .  S
Co664       N684   2.069   1_556  S
Co664       N671   2.089   1_556  S
Co664      Cl706   2.461       .  S
C665       C1037   1.471       .  S
C665        N703   1.349       .  A
N666        N673   1.319       .  A
N666        N696   1.323       .  A
N666       Co699   2.077       .  S
N667        N685   1.319       .  A
N667        N703   1.325       .  A
N668        C697   1.354       .  A
N668        N678   1.328       .  A
H669        C694   1.080       .  S
N670        N691   1.324       .  A
N671        N689   1.318       .  A
N671        N676   1.326       .  A
C672        C700   1.456       .  S
C672        C937   1.476       .  S
C672        N676   1.351       .  A
N673        C688   1.343       .  A
N673       Co695   2.092   1_556  S
C674        C677   1.459       .  S
C674        H708   1.081       .  S
C674        N702   1.340       .  A
C677        C964   1.474       .  S
C677        N698   1.349       .  A
N678        N684   1.319       .  A
N679        C705   1.344       .  A
N679        N681   1.320       .  A
N679       Co695   2.090       .  S
N680        C694   1.343       .  A
N681        N709   1.323       .  A
N681       Co699   2.079   1_554  S
H682        C705   1.081       .  S
H683        C700   1.080       .  S
N685       Co699   2.081       .  S
N686        N698   1.324       .  A
N686        N702   1.320       .  A
N686       Co695   2.086       .  S
C687        C701   1.455       .  S
C687       C1014   1.468       .  S
C687        N691   1.350       .  A
C688        C707   1.463       .  S
C688        H692   1.081       .  S
N689        C700   1.338       .  A
N689       Co699   2.076   1_554  S
C693        C705   1.458       .  S
C693        C947   1.466       .  S
C693        N709   1.346       .  A
Co695      Cl706   2.458   1_554  S
N696        C707   1.346       .  A
C697        C954   1.479       .  S
Co699      Cl706   2.448       .  S
C707       C1027   1.476       .  S
C710        C934   1.488       .  S
C710        C711   1.412       .  A
C710        C715   1.406       .  A
C711        C712   1.408       .  A
C711        H716   1.082       .  S
C712        C764   1.474       .  S
C712        C713   1.390       .  A
C713        C714   1.397       .  A
C713        H717   1.084       .  S
C714        C793   1.461       .  S
C714        C715   1.399       .  A
C715        H718   1.084       .  S
C719        C967   1.484       .  S
C719        C720   1.406       .  A
C719        C724   1.409       .  A
C720        C721   1.396       .  A
C720        H725   1.083       .  S
C721        C794   1.476       .  S
C721        C722   1.415       .  A
C722        C723   1.399       .  A
C722        H726   1.084       .  S
C723        C765   1.486       .  S
C723        C724   1.408       .  A
C724        H727   1.084       .  S
C728        C944   1.478       .  S
C728        C729   1.405       .  A
C728        C733   1.403       .  A
C729        C730   1.404       .  A
C729        H734   1.084       .  S
C730        C763   1.479       .  S
C730        C731   1.410       .  A
C731        C732   1.403       .  A
C731        H735   1.084       .  S
C732        C792   1.482       .  S
C732        C733   1.405       .  A
C733        H736   1.084       .  S
O737        C745   1.258       .  A
O737       Co757   1.957       .  S
O738        C746   1.288       .  A
O739        C747   1.285       .  A
O739       Co759   2.018       .  S
O740        C748   1.244       .  A
O740       Co760   1.988       .  S
O741        C747   1.279       .  A
O741       Co758   1.961   1_565  S
O742        C748   1.253       .  A
O743        C746   1.292       .  A
O743       Co760   1.942       .  S
O744        C745   1.276       .  A
O744       Co759   2.041       .  S
C745        C824   1.482       .  S
C746        C815   1.481       .  S
C747        C833   1.460       .  S
C748        C806   1.476       .  S
O749        C762   1.280       .  A
O750        C763   1.250       .  A
O750       Co758   2.016   1_565  S
O751        C764   1.251       .  A
O751       Co759   1.949       .  S
O752        C765   1.293       .  A
O752       Co760   2.024       .  S
O753        C765   1.292       .  A
O754        C764   1.277       .  A
O754       Co757   2.035       .  S
O755        C762   1.285       .  A
O755       Co760   1.983       .  S
O756        C763   1.245       .  A
O756       Co759   1.975       .  S
Co757       O761   2.021       .  S
Co758       O761   2.026   1_545  S
Co759       O761   2.016       .  S
C762        C797   1.461       .  S
O766        C774   1.248       .  A
O766       Co786   2.014       .  S
O767        C775   1.280       .  A
O767       Co787   1.994       .  S
O768        C776   1.249       .  A
O768      Co1840   1.945       .  S
O769        C777   1.293       .  A
O769       Co789   2.023       .  S
O770        C776   1.276       .  A
O770       Co787   2.033       .  S
O771        C777   1.292       .  A
O771       Co786   1.951       .  S
O772        C775   1.284       .  A
O772      Co1841   1.980       .  S
O773        C774   1.243       .  A
O773       Co788   1.970   1_455  S
C774        C826   1.475       .  S
C775        C817   1.459       .  S
C776        C835   1.474       .  S
C777        C808   1.488       .  S
O778        C791   1.286       .  A
O778       Co786   2.018       .  S
O779        C792   1.256       .  A
O779       Co787   1.954       .  S
O780        C793   1.286       .  A
O780       Co788   2.018   1_455  S
O781        C794   1.244       .  A
O781      Co1841   1.987       .  S
O782        C794   1.252       .  A
O782       Co787   1.988       .  S
O783        C793   1.278       .  A
O783       Co786   1.959       .  S
O784        C791   1.292       .  A
O784       Co789   1.947       .  S
O785        C792   1.276       .  A
O785      Co1840   2.045       .  S
Co786       O790   2.028   1_455  S
Co787      O1842   2.022       .  S
Co788      O1820   1.945       .  S
Co788      O1837   2.045       .  S
Co788       O790   2.018       .  S
Co789      O1824   1.980   1_455  S
Co789      O1833   1.987   1_455  S
Co789       O790   2.031   1_455  S
O790      Co1839   2.022       .  S
C791        C799   1.479       .  S
C795        C957   1.483       .  S
C795        C796   1.404       .  A
C795        C800   1.415       .  A
C796        C797   1.392       .  A
C796        H801   1.084       .  S
C797        C798   1.404       .  A
C798        C799   1.388       .  A
C798        H802   1.084       .  S
C799        C800   1.414       .  A
C800        H803   1.083       .  S
C804        C924   1.486       .  S
C804        C805   1.406       .  A
C804        C809   1.409       .  A
C805        C806   1.395       .  A
C805        H810   1.083       .  S
C806        C807   1.414       .  A
C807        C808   1.399       .  A
C807        H811   1.084       .  S
C808        C809   1.410       .  A
C809        H812   1.083       .  S
C813        C917   1.474       .  S
C813        C814   1.414       .  A
C813        C818   1.399       .  A
C814        C815   1.415       .  A
C814        H819   1.083       .  S
C815        C816   1.389       .  A
C816        C817   1.404       .  A
C816        H820   1.084       .  S
C817        C818   1.392       .  A
C818        H821   1.084       .  S
C822        C907   1.498       .  S
C822        C823   1.412       .  A
C822        C827   1.410       .  A
C823        C824   1.404       .  A
C823        H828   1.082       .  S
C824        C825   1.398       .  A
C825        C826   1.406       .  A
C825        H829   1.084       .  S
C826        C827   1.403       .  A
C827        H830   1.081       .  S
C831        C897   1.506       .  S
C831        C832   1.413       .  A
C831        C836   1.417       .  A
C832        C833   1.396       .  A
C832        H837   1.080       .  S
C833        C834   1.391       .  A
C834        C835   1.388       .  A
C834        H838   1.085       .  S
C835        C836   1.412       .  A
C836        H839   1.080       .  S
C840        C877   1.466       .  S
C840       C1007   1.482       .  S
C840        N858   1.348       .  A
N841        N858   1.324       .  A
N841        N863   1.319       .  A
N841       Co878   2.082       .  S
C842        C880   1.453       .  S
C842        H887   1.080       .  S
C842        N867   1.338       .  A
H843        C884   1.081       .  S
C844        C848   1.454       .  S
C844        H873   1.081       .  S
C844        N868   1.338       .  A
Co845      N1915   2.095       .  S
Co845       N853   2.089       .  S
Co845      N1937   2.084       .  S
Co845       N861   2.101       .  S
Co845     Cl1941   2.456       .  S
N846        C884   1.341       .  A
N846        N853   1.320       .  A
N846       Co847   2.081       .  S
Co847       N867   2.079       .  S
Co847     Cl1941   2.453       .  S
C848        C977   1.472       .  S
C848        N886   1.350       .  A
N849        N856   1.319       .  A
N849        N879   1.323       .  A
N849       Co882   2.080       .  S
N850        N868   1.320       .  A
N850        N886   1.326       .  A
N851        C880   1.352       .  A
N851        N861   1.328       .  A
H852        C877   1.081       .  S
N853        N874   1.324       .  A
N854        N872   1.319       .  A
N854        N859   1.324       .  A
C855        C883   1.459       .  S
C855        C894   1.479       .  S
C855        N859   1.350       .  A
N856        C871   1.342       .  A
C857        C860   1.457       .  S
C857        H891   1.081       .  S
C857        N885   1.343       .  A
C860        C927   1.469       .  S
C860        N881   1.349       .  A
N861        N867   1.321       .  A
N862        C888   1.340       .  A
N862        N864   1.319       .  A
N863        C877   1.342       .  A
N863      Co1897   2.095   1_455  S
N864        N892   1.324       .  A
N864       Co882   2.082       .  S
H865        C888   1.080       .  S
H866        C883   1.081       .  S
N868      Co1934   2.080       .  S
N869        N881   1.322       .  A
N869        N885   1.320       .  A
N869       Co878   2.086       .  S
C870        C884   1.455       .  S
C870        C987   1.470       .  S
C870        N874   1.351       .  A
C871        C890   1.461       .  S
C871        H875   1.081       .  S
N872        C883   1.341       .  A
N872      Co1934   2.080       .  S
C876        C888   1.463       .  S
C876        C904   1.482       .  S
C876        N892   1.351       .  A
Co878      Cl889   2.450   1_455  S
N879        C890   1.347       .  A
C880        C914   1.472       .  S
Co882      N1920   2.080   1_455  S
Co882      N1924   2.080   1_455  S
N885      Co1897   2.084   1_455  S
Cl889     Co1897   2.456       .  S
Cl889     Co1899   2.453       .  S
C890        C997   1.475       .  S
C893        C894   1.402       .  A
C893        C898   1.401       .  A
C893        H900   1.083       .  S
C894        C895   1.402       .  A
C895        C896   1.394       .  A
C895        F902   1.355       .  S
C896        C897   1.413       .  A
C896        H901   1.080       .  S
C897        C898   1.416       .  A
C898        F899   1.356       .  S
C903        C904   1.404       .  A
C903        C908   1.400       .  A
C903        H910   1.083       .  S
C904        C905   1.406       .  A
C905        C906   1.394       .  A
C905        F912   1.354       .  S
C906        C907   1.409       .  A
C906        H911   1.081       .  S
C907        C908   1.413       .  A
C908        F909   1.357       .  S
C913        C914   1.401       .  A
C913        C918   1.401       .  A
C913        H920   1.083       .  S
C914        C915   1.406       .  A
C915        C916   1.398       .  A
C915        F922   1.356       .  S
C916        C917   1.401       .  A
C916        H921   1.084       .  S
C917        C918   1.407       .  A
C918        F919   1.357       .  S
C923        C924   1.409       .  A
C923        C928   1.401       .  A
C923        H930   1.083       .  S
C924        C925   1.410       .  A
C925        C926   1.393       .  A
C925        F932   1.358       .  S
C926        C927   1.398       .  A
C926        H931   1.082       .  S
C927        C928   1.403       .  A
C928        F929   1.357       .  S
C933        C934   1.408       .  A
C933        C938   1.399       .  A
C933        H940   1.082       .  S
C934        C935   1.409       .  A
C935        C936   1.396       .  A
C935        F942   1.358       .  S
C936        C937   1.404       .  A
C936        H941   1.081       .  S
C937        C938   1.404       .  A
C938        F939   1.357       .  S
C943        C944   1.404       .  A
C943        C948   1.399       .  A
C943        H950   1.083       .  S
C944        C945   1.406       .  A
C945        C946   1.399       .  A
C945        F952   1.357       .  S
C946        C947   1.400       .  A
C946        H951   1.083       .  S
C947        C948   1.404       .  A
C948        F949   1.358       .  S
C953        C954   1.401       .  A
C953        C958   1.399       .  A
C953        H960   1.083       .  S
C954        C955   1.411       .  A
C955        C956   1.398       .  A
C955        F962   1.357       .  S
C956        C957   1.402       .  A
C956        H961   1.083       .  S
C957        C958   1.410       .  A
C958        F959   1.358       .  S
C963        C964   1.402       .  A
C963        C968   1.397       .  A
C963        H970   1.083       .  S
C964        C965   1.407       .  A
C965        C966   1.398       .  A
C965        F972   1.357       .  S
C966        C967   1.406       .  A
C966        H971   1.083       .  S
C967        C968   1.408       .  A
C968        F969   1.357       .  S
C973        C974   1.408       .  A
C973        C978   1.399       .  A
C973        H980   1.082       .  S
C974        C975   1.410       .  A
C975        C976   1.396       .  A
C975        F982   1.358       .  S
C976        C977   1.403       .  A
C976        H981   1.083       .  S
C977        C978   1.402       .  A
C978        F979   1.357       .  S
C983        C984   1.406       .  A
C983        C988   1.395       .  A
C983        H990   1.083       .  S
C984        C985   1.410       .  A
C985        C986   1.400       .  A
C985        F992   1.357       .  S
C986        C987   1.401       .  A
C986        H991   1.083       .  S
C987        C988   1.401       .  A
C988        F989   1.353       .  S
C993        C994   1.406       .  A
C993        C998   1.399       .  A
C993       H1000   1.083       .  S
C994        C995   1.413       .  A
C995        C996   1.396       .  A
C995       F1002   1.358       .  S
C996        C997   1.401       .  A
C996       H1001   1.083       .  S
C997        C998   1.406       .  A
C998        F999   1.357       .  S
C1003      C1004   1.411       .  A
C1003      C1008   1.404       .  A
C1003      H1010   1.082       .  S
C1004      C1005   1.416       .  A
C1005      C1006   1.392       .  A
C1005      F1012   1.357       .  S
C1006      C1007   1.397       .  A
C1006      H1011   1.078       .  S
C1007      C1008   1.407       .  A
C1008      F1009   1.357       .  S
C1013      C1014   1.400       .  A
C1013      C1018   1.399       .  A
C1013      H1020   1.083       .  S
C1014      C1015   1.402       .  A
C1015      C1016   1.397       .  A
C1015      F1022   1.355       .  S
C1016      C1017   1.405       .  A
C1016      H1021   1.083       .  S
C1017      C1018   1.409       .  A
C1018      F1019   1.357       .  S
C1023      C1024   1.409       .  A
C1023      C1028   1.397       .  A
C1023      H1030   1.083       .  S
C1024      C1025   1.408       .  A
C1025      C1026   1.399       .  A
C1025      F1032   1.357       .  S
C1026      C1027   1.404       .  A
C1026      H1031   1.083       .  S
C1027      C1028   1.404       .  A
C1028      F1029   1.357       .  S
C1033      C1034   1.407       .  A
C1033      C1038   1.398       .  A
C1033      H1040   1.082       .  S
C1034      C1035   1.411       .  A
C1035      C1036   1.395       .  A
C1035      F1042   1.358       .  S
C1036      C1037   1.402       .  A
C1036      H1041   1.083       .  S
C1037      C1038   1.403       .  A
C1038      F1039   1.357       .  S
C1043      C1044   1.413       .  A
C1043      C1048   1.394       .  A
C1043      H1050   1.080       .  S
C1044      C1045   1.414       .  A
C1045      C1046   1.404       .  A
C1045      F1052   1.356       .  S
C1046      C1047   1.407       .  A
C1046      H1051   1.083       .  S
C1047      C1048   1.403       .  A
C1048      F1049   1.354       .  S
O1053      C1061   1.265       .  A
O1054      C1062   1.262       .  A
O1055      C1063   1.272       .  A
O1055     Co1075   2.028       .  S
O1056      C1064   1.269       .  A
O1056     Co1076   2.017       .  S
O1057      C1063   1.263       .  A
O1057     Co1074   1.970       .  S
O1058      C1064   1.267       .  A
O1058     Co1073   1.980       .  S
O1059      C1062   1.274       .  A
O1059     Co1076   2.036       .  S
O1060      C1061   1.272       .  A
O1060     Co1075   2.027       .  S
C1061      C1167   1.486       .  S
C1062      C1158   1.488       .  S
C1063      C1178   1.485       .  S
C1064      C1149   1.482       .  S
O1065      C1078   1.271       .  A
O1065     Co1073   2.021       .  S
O1066      C1079   1.271       .  A
O1066     Co1074   2.025       .  S
O1067      C1080   1.263       .  A
O1067     Co1075   1.975       .  S
O1068      C1081   1.262       .  A
O1068     Co1076   1.965       .  S
O1069      C1081   1.272       .  A
O1070      C1080   1.275       .  A
O1071      C1078   1.265       .  A
O1071     Co1076   1.975       .  S
O1072      C1079   1.263       .  A
O1072     Co1075   1.967       .  S
Co1074     O1077   2.110   1_655  S
Co1075     O1077   2.107   1_655  S
C1078      C1140   1.484       .  S
C1079      C1131   1.481       .  S
C1080      C1084   1.493       .  S
C1081      C1124   1.484       .  S
C1082      C1570   1.508       .  S
C1082      C1083   1.421       .  A
C1082      C1087   1.412       .  A
C1083      C1084   1.413       .  A
C1083      H1088   1.080       .  S
C1084      C1085   1.407       .  A
C1085      C1086   1.403       .  A
C1085      H1089   1.084       .  S
C1086      C1099   1.482       .  S
C1086      C1087   1.395       .  A
C1087      H1090   1.080       .  S
O1091      C1099   1.269       .  A
O1091     Co1637   2.018   1_545  S
O1092      C1100   1.271       .  A
O1092     Co1112   2.026       .  S
O1093      C1101   1.265       .  A
O1093     Co1113   1.974       .  S
O1094      C1102   1.262       .  A
O1094     Co1114   1.969       .  S
O1095      C1101   1.273       .  A
O1095     Co1638   2.029   1_545  S
O1096      C1102   1.274       .  A
O1096     Co1111   2.036       .  S
O1097      C1100   1.263       .  A
O1097     Co1114   1.970       .  S
O1098      C1099   1.267       .  A
O1098     Co1113   1.979       .  S
C1100      C1122   1.483       .  S
C1101      C1142   1.487       .  S
C1102      C1133   1.489       .  S
O1103      C1116   1.262       .  A
O1103     Co1111   1.964       .  S
O1104      C1117   1.263       .  A
O1104     Co1638   1.974   1_545  S
O1105      C1118   1.271       .  A
O1105     Co1113   2.020       .  S
O1106      C1119   1.270       .  A
O1106     Co1114   2.023       .  S
O1107      C1119   1.264       .  A
O1107     Co1112   1.969       .  S
O1108      C1118   1.265       .  A
O1108     Co1637   1.975   1_545  S
O1109      C1116   1.272       .  A
O1109     Co1114   2.031       .  S
O1110      C1117   1.275       .  A
O1110     Co1113   2.034       .  S
Co1111     O1617   2.018       .  S
Co1111     O1634   1.975       .  S
Co1111     O1115   2.105       .  S
Co1112     O1621   2.029       .  S
Co1112     O1630   1.974       .  S
Co1112     O1115   2.108       .  S
Co1113     O1641   2.102   1_545  S
Co1114     O1115   2.109       .  S
O1115     Co1639   2.102       .  S
C1116      C1176   1.483       .  S
C1117      C1151   1.491       .  S
C1118      C1169   1.484       .  S
C1119      C1160   1.481       .  S
C1120      C1560   1.487       .  S
C1120      C1121   1.407       .  A
C1120      C1125   1.407       .  A
C1121      C1122   1.401       .  A
C1121      H1126   1.083       .  S
C1122      C1123   1.407       .  A
C1123      C1124   1.408       .  A
C1123      H1127   1.083       .  S
C1124      C1125   1.404       .  A
C1125      H1128   1.083       .  S
C1129      C1550   1.490       .  S
C1129      C1130   1.405       .  A
C1129      C1134   1.411       .  A
C1130      C1131   1.399       .  A
C1130      H1135   1.083       .  S
C1131      C1132   1.406       .  A
C1132      C1133   1.408       .  A
C1132      H1136   1.083       .  S
C1133      C1134   1.409       .  A
C1134      H1137   1.083       .  S
C1138      C1543   1.482       .  S
C1138      C1139   1.407       .  A
C1138      C1143   1.408       .  A
C1139      C1140   1.401       .  A
C1139      H1144   1.084       .  S
C1140      C1141   1.409       .  A
C1141      C1142   1.408       .  A
C1141      H1145   1.083       .  S
C1142      C1143   1.404       .  A
C1143      H1146   1.084       .  S
C1147      C1530   1.502       .  S
C1147      C1148   1.410       .  A
C1147      C1152   1.418       .  A
C1148      C1149   1.395       .  A
C1148      H1153   1.080       .  S
C1149      C1150   1.404       .  A
C1150      C1151   1.407       .  A
C1150      H1154   1.083       .  S
C1151      C1152   1.411       .  A
C1152      H1155   1.082       .  S
C1156      C1520   1.491       .  S
C1156      C1157   1.411       .  A
C1156      C1161   1.406       .  A
C1157      C1158   1.409       .  A
C1157      H1162   1.083       .  S
C1158      C1159   1.407       .  A
C1159      C1160   1.406       .  A
C1159      H1163   1.083       .  S
C1160      C1161   1.399       .  A
C1161      H1164   1.083       .  S
C1165      C1510   1.486       .  S
C1165      C1166   1.410       .  A
C1165      C1170   1.408       .  A
C1166      C1167   1.403       .  A
C1166      H1171   1.083       .  S
C1167      C1168   1.407       .  A
C1168      C1169   1.408       .  A
C1168      H1172   1.083       .  S
C1169      C1170   1.402       .  A
C1170      H1173   1.083       .  S
C1174      C1500   1.488       .  S
C1174      C1175   1.406       .  A
C1174      C1179   1.409       .  A
C1175      C1176   1.404       .  A
C1175      H1180   1.083       .  S
C1176      C1177   1.407       .  A
C1177      C1178   1.407       .  A
C1177      H1181   1.083       .  S
C1178      C1179   1.403       .  A
C1179      H1182   1.083       .  S
C1183      C1220   1.469       .  S
C1183      C1573   1.487       .  S
C1183      N1201   1.349       .  A
N1184      N1201   1.324       .  A
N1184      N1206   1.319       .  A
N1184     Co1221   2.080   1_556  S
C1185      C1223   1.454       .  S
C1185      H1230   1.080       .  S
C1185      N1210   1.336       .  A
H1186      C1227   1.081       .  S
C1187      C1191   1.456       .  S
C1187      H1216   1.081       .  S
C1187      N1211   1.339       .  A
Co1188     N1206   2.100   1_554  S
Co1188     N1196   2.090   1_554  S
Co1188     N1228   2.083       .  S
Co1188     N1204   2.105       .  S
Co1188    Cl1232   2.447   1_554  S
N1189      C1227   1.341       .  A
N1189      N1196   1.320       .  A
N1189     Co1190   2.081       .  S
Co1190     N1193   2.081       .  S
Co1190     N1210   2.069   1_556  S
Co1190     N1197   2.089   1_556  S
Co1190    Cl1232   2.461       .  S
C1191      C1563   1.471       .  S
C1191      N1229   1.349       .  A
N1192      N1199   1.319       .  A
N1192      N1222   1.323       .  A
N1192     Co1225   2.077       .  S
N1193      N1211   1.319       .  A
N1193      N1229   1.325       .  A
N1194      C1223   1.354       .  A
N1194      N1204   1.328       .  A
H1195      C1220   1.080       .  S
N1196      N1217   1.324       .  A
N1197      N1215   1.318       .  A
N1197      N1202   1.326       .  A
C1198      C1226   1.456       .  S
C1198      C1463   1.476       .  S
C1198      N1202   1.351       .  A
N1199      C1214   1.343       .  A
N1199     Co1221   2.092   1_556  S
C1200      C1203   1.459       .  S
C1200      H1234   1.081       .  S
C1200      N1228   1.340       .  A
C1203      C1490   1.474       .  S
C1203      N1224   1.349       .  A
N1204      N1210   1.319       .  A
N1205      C1231   1.344       .  A
N1205      N1207   1.320       .  A
N1205     Co1221   2.090       .  S
N1206      C1220   1.343       .  A
N1207      N1235   1.323       .  A
N1207     Co1225   2.079   1_554  S
H1208      C1231   1.081       .  S
H1209      C1226   1.080       .  S
N1211     Co1225   2.081       .  S
N1212      N1224   1.324       .  A
N1212      N1228   1.320       .  A
N1212     Co1221   2.086       .  S
C1213      C1227   1.455       .  S
C1213      C1540   1.468       .  S
C1213      N1217   1.350       .  A
C1214      C1233   1.463       .  S
C1214      H1218   1.081       .  S
N1215      C1226   1.338       .  A
N1215     Co1225   2.076   1_554  S
C1219      C1231   1.458       .  S
C1219      C1473   1.466       .  S
C1219      N1235   1.346       .  A
Co1221    Cl1232   2.458   1_554  S
N1222      C1233   1.346       .  A
C1223      C1480   1.479       .  S
Co1225    Cl1232   2.448       .  S
C1233      C1553   1.476       .  S
C1236      C1460   1.488       .  S
C1236      C1237   1.412       .  A
C1236      C1241   1.406       .  A
C1237      C1238   1.408       .  A
C1237      H1242   1.082       .  S
C1238      C1290   1.474       .  S
C1238      C1239   1.390       .  A
C1239      C1240   1.397       .  A
C1239      H1243   1.084       .  S
C1240      C1319   1.461       .  S
C1240      C1241   1.399       .  A
C1241      H1244   1.084       .  S
C1245      C1493   1.484       .  S
C1245      C1246   1.406       .  A
C1245      C1250   1.409       .  A
C1246      C1247   1.396       .  A
C1246      H1251   1.083       .  S
C1247      C1320   1.476       .  S
C1247      C1248   1.415       .  A
C1248      C1249   1.399       .  A
C1248      H1252   1.084       .  S
C1249      C1291   1.486       .  S
C1249      C1250   1.408       .  A
C1250      H1253   1.084       .  S
C1254      C1470   1.478       .  S
C1254      C1255   1.405       .  A
C1254      C1259   1.403       .  A
C1255      C1256   1.404       .  A
C1255      H1260   1.084       .  S
C1256      C1289   1.479       .  S
C1256      C1257   1.410       .  A
C1257      C1258   1.403       .  A
C1257      H1261   1.084       .  S
C1258      C1318   1.482       .  S
C1258      C1259   1.405       .  A
C1259      H1262   1.084       .  S
O1263      C1271   1.258       .  A
O1263     Co1283   1.957       .  S
O1264      C1272   1.288       .  A
O1264     Co1810   2.023       .  S
O1265      C1273   1.285       .  A
O1265     Co1285   2.018       .  S
O1266      C1274   1.244       .  A
O1266     Co1286   1.988       .  S
O1267      C1273   1.279       .  A
O1267     Co1284   1.961       .  S
O1268      C1274   1.253       .  A
O1268     Co1809   1.988   1_545  S
O1269      C1272   1.292       .  A
O1269     Co1286   1.942       .  S
O1270      C1271   1.276       .  A
O1270     Co1285   2.041       .  S
C1271      C1350   1.482       .  S
C1272      C1341   1.481       .  S
C1273      C1359   1.460       .  S
C1274      C1332   1.476       .  S
O1275      C1288   1.280       .  A
O1275     Co1809   1.992   1_545  S
O1276      C1289   1.250       .  A
O1276     Co1284   2.016       .  S
O1277      C1290   1.251       .  A
O1277     Co1285   1.949       .  S
O1278      C1291   1.293       .  A
O1278     Co1286   2.024       .  S
O1279      C1291   1.292       .  A
O1279     Co1810   1.950       .  S
O1280      C1290   1.277       .  A
O1280     Co1283   2.035       .  S
O1281      C1288   1.285       .  A
O1281     Co1286   1.983       .  S
O1282      C1289   1.245       .  A
O1282     Co1285   1.975       .  S
Co1283     O1794   1.988       .  S
Co1283     O1801   1.992       .  S
Co1283     O1287   2.021       .  S
Co1284     O1790   2.023       .  S
Co1284     O1805   1.950       .  S
Co1284     O1287   2.026       .  S
Co1285     O1287   2.016       .  S
Co1286     O1813   2.029   1_545  S
O1287     Co1812   2.029       .  S
C1288      C1323   1.461       .  S
O1292      C1300   1.248       .  A
O1292     Co1312   2.014       .  S
O1293      C1301   1.280       .  A
O1293     Co1313   1.994       .  S
O1294      C1302   1.249       .  A
O1295      C1303   1.293       .  A
O1295     Co1315   2.023       .  S
O1296      C1302   1.276       .  A
O1296     Co1313   2.033       .  S
O1297      C1303   1.292       .  A
O1297     Co1312   1.951       .  S
O1298      C1301   1.284       .  A
O1299      C1300   1.243       .  A
O1299     Co1314   1.970       .  S
C1300      C1352   1.475       .  S
C1301      C1343   1.459       .  S
C1302      C1361   1.474       .  S
C1303      C1334   1.488       .  S
O1304      C1317   1.286       .  A
O1304     Co1312   2.018       .  S
O1305      C1318   1.256       .  A
O1305     Co1313   1.954       .  S
O1306      C1319   1.286       .  A
O1306     Co1314   2.018       .  S
O1307      C1320   1.244       .  A
O1308      C1320   1.252       .  A
O1308     Co1313   1.988       .  S
O1309      C1319   1.278       .  A
O1309     Co1312   1.959       .  S
O1310      C1317   1.292       .  A
O1310     Co1315   1.947       .  S
O1311      C1318   1.276       .  A
Co1312     O1316   2.028       .  S
Co1314     O1316   2.018       .  S
Co1315     O1316   2.031       .  S
C1317      C1325   1.479       .  S
C1321      C1483   1.483       .  S
C1321      C1322   1.404       .  A
C1321      C1326   1.415       .  A
C1322      C1323   1.392       .  A
C1322      H1327   1.084       .  S
C1323      C1324   1.404       .  A
C1324      C1325   1.388       .  A
C1324      H1328   1.084       .  S
C1325      C1326   1.414       .  A
C1326      H1329   1.083       .  S
C1330      C1450   1.486       .  S
C1330      C1331   1.406       .  A
C1330      C1335   1.409       .  A
C1331      C1332   1.395       .  A
C1331      H1336   1.083       .  S
C1332      C1333   1.414       .  A
C1333      C1334   1.399       .  A
C1333      H1337   1.084       .  S
C1334      C1335   1.410       .  A
C1335      H1338   1.083       .  S
C1339      C1443   1.474       .  S
C1339      C1340   1.414       .  A
C1339      C1344   1.399       .  A
C1340      C1341   1.415       .  A
C1340      H1345   1.083       .  S
C1341      C1342   1.389       .  A
C1342      C1343   1.404       .  A
C1342      H1346   1.084       .  S
C1343      C1344   1.392       .  A
C1344      H1347   1.084       .  S
C1348      C1433   1.498       .  S
C1348      C1349   1.412       .  A
C1348      C1353   1.410       .  A
C1349      C1350   1.404       .  A
C1349      H1354   1.082       .  S
C1350      C1351   1.398       .  A
C1351      C1352   1.406       .  A
C1351      H1355   1.084       .  S
C1352      C1353   1.403       .  A
C1353      H1356   1.081       .  S
C1357      C1423   1.506       .  S
C1357      C1358   1.413       .  A
C1357      C1362   1.417       .  A
C1358      C1359   1.396       .  A
C1358      H1363   1.080       .  S
C1359      C1360   1.391       .  A
C1360      C1361   1.388       .  A
C1360      H1364   1.085       .  S
C1361      C1362   1.412       .  A
C1362      H1365   1.080       .  S
C1366      C1403   1.466       .  S
C1366      C1533   1.482       .  S
C1366      N1384   1.348       .  A
N1367      N1384   1.324       .  A
N1367      N1389   1.319       .  A
N1367     Co1404   2.082       .  S
C1368      C1406   1.453       .  S
C1368      H1413   1.080       .  S
C1368      N1393   1.338       .  A
H1369      C1410   1.081       .  S
C1370      C1374   1.454       .  S
C1370      H1399   1.081       .  S
C1370      N1394   1.338       .  A
Co1371     N1379   2.089       .  S
Co1371     N1387   2.101       .  S
N1372      C1410   1.341       .  A
N1372      N1379   1.320       .  A
N1372     Co1373   2.081       .  S
Co1373     N1902   2.090   1_545  S
Co1373     N1393   2.079       .  S
Co1373     N1906   2.089   1_545  S
C1374      C1503   1.472       .  S
C1374      N1412   1.350       .  A
N1375      N1382   1.319       .  A
N1375      N1405   1.323       .  A
N1375     Co1408   2.080       .  S
N1376      N1394   1.320       .  A
N1376      N1412   1.326       .  A
N1376     Co1899   2.090       .  S
N1377      C1406   1.352       .  A
N1377      N1387   1.328       .  A
H1378      C1403   1.081       .  S
N1379      N1400   1.324       .  A
N1380      N1398   1.319       .  A
N1380      N1385   1.324       .  A
N1380     Co1899   2.089       .  S
C1381      C1409   1.459       .  S
C1381      C1420   1.479       .  S
C1381      N1385   1.350       .  A
N1382      C1397   1.342       .  A
N1382     Co1930   2.088       .  S
C1383      C1386   1.457       .  S
C1383      H1417   1.081       .  S
C1383      N1411   1.343       .  A
C1386      C1453   1.469       .  S
C1386      N1407   1.349       .  A
N1387      N1393   1.321       .  A
N1388      C1414   1.340       .  A
N1388      N1390   1.319       .  A
N1388     Co1930   2.086       .  S
N1389      C1403   1.342       .  A
N1390      N1418   1.324       .  A
N1390     Co1408   2.082       .  S
H1391      C1414   1.080       .  S
H1392      C1409   1.081       .  S
N1395      N1407   1.322       .  A
N1395      N1411   1.320       .  A
N1395     Co1404   2.086       .  S
C1396      C1410   1.455       .  S
C1396      C1513   1.470       .  S
C1396      N1400   1.351       .  A
C1397      C1416   1.461       .  S
C1397      H1401   1.081       .  S
N1398      C1409   1.341       .  A
C1402      C1414   1.463       .  S
C1402      C1430   1.482       .  S
C1402      N1418   1.351       .  A
Co1404     N1908   2.088   1_545  S
Co1404     N1914   2.086   1_545  S
Co1404    Cl1415   2.450       .  S
N1405      C1416   1.347       .  A
C1406      C1440   1.472       .  S
Co1408    Cl1941   2.458       .  S
Cl1415    Co1934   2.458   1_545  S
C1416      C1523   1.475       .  S
C1419      C1420   1.402       .  A
C1419      C1424   1.401       .  A
C1419      H1426   1.083       .  S
C1420      C1421   1.402       .  A
C1421      C1422   1.394       .  A
C1421      F1428   1.355       .  S
C1422      C1423   1.413       .  A
C1422      H1427   1.080       .  S
C1423      C1424   1.416       .  A
C1424      F1425   1.356       .  S
C1429      C1430   1.404       .  A
C1429      C1434   1.400       .  A
C1429      H1436   1.083       .  S
C1430      C1431   1.406       .  A
C1431      C1432   1.394       .  A
C1431      F1438   1.354       .  S
C1432      C1433   1.409       .  A
C1432      H1437   1.081       .  S
C1433      C1434   1.413       .  A
C1434      F1435   1.357       .  S
C1439      C1440   1.401       .  A
C1439      C1444   1.401       .  A
C1439      H1446   1.083       .  S
C1440      C1441   1.406       .  A
C1441      C1442   1.398       .  A
C1441      F1448   1.356       .  S
C1442      C1443   1.401       .  A
C1442      H1447   1.084       .  S
C1443      C1444   1.407       .  A
C1444      F1445   1.357       .  S
C1449      C1450   1.409       .  A
C1449      C1454   1.401       .  A
C1449      H1456   1.083       .  S
C1450      C1451   1.410       .  A
C1451      C1452   1.393       .  A
C1451      F1458   1.358       .  S
C1452      C1453   1.398       .  A
C1452      H1457   1.082       .  S
C1453      C1454   1.403       .  A
C1454      F1455   1.357       .  S
C1459      C1460   1.408       .  A
C1459      C1464   1.399       .  A
C1459      H1466   1.082       .  S
C1460      C1461   1.409       .  A
C1461      C1462   1.396       .  A
C1461      F1468   1.358       .  S
C1462      C1463   1.404       .  A
C1462      H1467   1.081       .  S
C1463      C1464   1.404       .  A
C1464      F1465   1.357       .  S
C1469      C1470   1.404       .  A
C1469      C1474   1.399       .  A
C1469      H1476   1.083       .  S
C1470      C1471   1.406       .  A
C1471      C1472   1.399       .  A
C1471      F1478   1.357       .  S
C1472      C1473   1.400       .  A
C1472      H1477   1.083       .  S
C1473      C1474   1.404       .  A
C1474      F1475   1.358       .  S
C1479      C1480   1.401       .  A
C1479      C1484   1.399       .  A
C1479      H1486   1.083       .  S
C1480      C1481   1.411       .  A
C1481      C1482   1.398       .  A
C1481      F1488   1.357       .  S
C1482      C1483   1.402       .  A
C1482      H1487   1.083       .  S
C1483      C1484   1.410       .  A
C1484      F1485   1.358       .  S
C1489      C1490   1.402       .  A
C1489      C1494   1.397       .  A
C1489      H1496   1.083       .  S
C1490      C1491   1.407       .  A
C1491      C1492   1.398       .  A
C1491      F1498   1.357       .  S
C1492      C1493   1.406       .  A
C1492      H1497   1.083       .  S
C1493      C1494   1.408       .  A
C1494      F1495   1.357       .  S
C1499      C1500   1.408       .  A
C1499      C1504   1.399       .  A
C1499      H1506   1.082       .  S
C1500      C1501   1.410       .  A
C1501      C1502   1.396       .  A
C1501      F1508   1.358       .  S
C1502      C1503   1.403       .  A
C1502      H1507   1.083       .  S
C1503      C1504   1.402       .  A
C1504      F1505   1.357       .  S
C1509      C1510   1.406       .  A
C1509      C1514   1.395       .  A
C1509      H1516   1.083       .  S
C1510      C1511   1.410       .  A
C1511      C1512   1.400       .  A
C1511      F1518   1.357       .  S
C1512      C1513   1.401       .  A
C1512      H1517   1.083       .  S
C1513      C1514   1.401       .  A
C1514      F1515   1.353       .  S
C1519      C1520   1.406       .  A
C1519      C1524   1.399       .  A
C1519      H1526   1.083       .  S
C1520      C1521   1.413       .  A
C1521      C1522   1.396       .  A
C1521      F1528   1.358       .  S
C1522      C1523   1.401       .  A
C1522      H1527   1.083       .  S
C1523      C1524   1.406       .  A
C1524      F1525   1.357       .  S
C1529      C1530   1.411       .  A
C1529      C1534   1.404       .  A
C1529      H1536   1.082       .  S
C1530      C1531   1.416       .  A
C1531      C1532   1.392       .  A
C1531      F1538   1.357       .  S
C1532      C1533   1.397       .  A
C1532      H1537   1.078       .  S
C1533      C1534   1.407       .  A
C1534      F1535   1.357       .  S
C1539      C1540   1.400       .  A
C1539      C1544   1.399       .  A
C1539      H1546   1.083       .  S
C1540      C1541   1.402       .  A
C1541      C1542   1.397       .  A
C1541      F1548   1.355       .  S
C1542      C1543   1.405       .  A
C1542      H1547   1.083       .  S
C1543      C1544   1.409       .  A
C1544      F1545   1.357       .  S
C1549      C1550   1.409       .  A
C1549      C1554   1.397       .  A
C1549      H1556   1.083       .  S
C1550      C1551   1.408       .  A
C1551      C1552   1.399       .  A
C1551      F1558   1.357       .  S
C1552      C1553   1.404       .  A
C1552      H1557   1.083       .  S
C1553      C1554   1.404       .  A
C1554      F1555   1.357       .  S
C1559      C1560   1.407       .  A
C1559      C1564   1.398       .  A
C1559      H1566   1.082       .  S
C1560      C1561   1.411       .  A
C1561      C1562   1.395       .  A
C1561      F1568   1.358       .  S
C1562      C1563   1.402       .  A
C1562      H1567   1.083       .  S
C1563      C1564   1.403       .  A
C1564      F1565   1.357       .  S
C1569      C1570   1.413       .  A
C1569      C1574   1.394       .  A
C1569      H1576   1.080       .  S
C1570      C1571   1.414       .  A
C1571      C1572   1.404       .  A
C1571      F1578   1.356       .  S
C1572      C1573   1.407       .  A
C1572      H1577   1.083       .  S
C1573      C1574   1.403       .  A
C1574      F1575   1.354       .  S
O1579      C1587   1.265       .  A
O1580      C1588   1.262       .  A
O1581      C1589   1.272       .  A
O1581     Co1601   2.028       .  S
O1582      C1590   1.269       .  A
O1582     Co1602   2.017       .  S
O1583      C1589   1.263       .  A
O1583     Co1600   1.970       .  S
O1584      C1590   1.267       .  A
O1584     Co1599   1.980       .  S
O1585      C1588   1.274       .  A
O1585     Co1602   2.036       .  S
O1586      C1587   1.272       .  A
O1586     Co1601   2.027       .  S
C1587      C1693   1.486       .  S
C1588      C1684   1.488       .  S
C1589      C1704   1.485       .  S
C1590      C1675   1.482       .  S
O1591      C1604   1.271       .  A
O1591     Co1599   2.021       .  S
O1592      C1605   1.271       .  A
O1592     Co1600   2.025       .  S
O1593      C1606   1.263       .  A
O1593     Co1601   1.975       .  S
O1594      C1607   1.262       .  A
O1594     Co1602   1.965       .  S
O1595      C1607   1.272       .  A
O1596      C1606   1.275       .  A
O1597      C1604   1.265       .  A
O1597     Co1602   1.975       .  S
O1598      C1605   1.263       .  A
O1598     Co1601   1.967       .  S
Co1600     O1603   2.110   1_655  S
Co1601     O1603   2.107   1_655  S
C1604      C1666   1.484       .  S
C1605      C1657   1.481       .  S
C1606      C1610   1.493       .  S
C1607      C1650   1.484       .  S
C1608      C2096   1.508       .  S
C1608      C1609   1.421       .  A
C1608      C1613   1.412       .  A
C1609      C1610   1.413       .  A
C1609      H1614   1.080       .  S
C1610      C1611   1.407       .  A
C1611      C1612   1.403       .  A
C1611      H1615   1.084       .  S
C1612      C1625   1.482       .  S
C1612      C1613   1.395       .  A
C1613      H1616   1.080       .  S
O1617      C1625   1.269       .  A
O1618      C1626   1.271       .  A
O1618     Co1638   2.026       .  S
O1619      C1627   1.265       .  A
O1619     Co1639   1.974       .  S
O1620      C1628   1.262       .  A
O1620     Co1640   1.969       .  S
O1621      C1627   1.273       .  A
O1622      C1628   1.274       .  A
O1622     Co1637   2.036       .  S
O1623      C1626   1.263       .  A
O1623     Co1640   1.970       .  S
O1624      C1625   1.267       .  A
O1624     Co1639   1.979       .  S
C1626      C1648   1.483       .  S
C1627      C1668   1.487       .  S
C1628      C1659   1.489       .  S
O1629      C1642   1.262       .  A
O1629     Co1637   1.964       .  S
O1630      C1643   1.263       .  A
O1631      C1644   1.271       .  A
O1631     Co1639   2.020       .  S
O1632      C1645   1.270       .  A
O1632     Co1640   2.023       .  S
O1633      C1645   1.264       .  A
O1633     Co1638   1.969       .  S
O1634      C1644   1.265       .  A
O1635      C1642   1.272       .  A
O1635     Co1640   2.031       .  S
O1636      C1643   1.275       .  A
O1636     Co1639   2.034       .  S
Co1637     O1641   2.105       .  S
Co1638     O1641   2.108       .  S
Co1640     O1641   2.109       .  S
C1642      C1702   1.483       .  S
C1643      C1677   1.491       .  S
C1644      C1695   1.484       .  S
C1645      C1686   1.481       .  S
C1646      C2086   1.487       .  S
C1646      C1647   1.407       .  A
C1646      C1651   1.407       .  A
C1647      C1648   1.401       .  A
C1647      H1652   1.083       .  S
C1648      C1649   1.407       .  A
C1649      C1650   1.408       .  A
C1649      H1653   1.083       .  S
C1650      C1651   1.404       .  A
C1651      H1654   1.083       .  S
C1655      C2076   1.490       .  S
C1655      C1656   1.405       .  A
C1655      C1660   1.411       .  A
C1656      C1657   1.399       .  A
C1656      H1661   1.083       .  S
C1657      C1658   1.406       .  A
C1658      C1659   1.408       .  A
C1658      H1662   1.083       .  S
C1659      C1660   1.409       .  A
C1660      H1663   1.083       .  S
C1664      C2069   1.482       .  S
C1664      C1665   1.407       .  A
C1664      C1669   1.408       .  A
C1665      C1666   1.401       .  A
C1665      H1670   1.084       .  S
C1666      C1667   1.409       .  A
C1667      C1668   1.408       .  A
C1667      H1671   1.083       .  S
C1668      C1669   1.404       .  A
C1669      H1672   1.084       .  S
C1673      C2056   1.502       .  S
C1673      C1674   1.410       .  A
C1673      C1678   1.418       .  A
C1674      C1675   1.395       .  A
C1674      H1679   1.080       .  S
C1675      C1676   1.404       .  A
C1676      C1677   1.407       .  A
C1676      H1680   1.083       .  S
C1677      C1678   1.411       .  A
C1678      H1681   1.082       .  S
C1682      C2046   1.491       .  S
C1682      C1683   1.411       .  A
C1682      C1687   1.406       .  A
C1683      C1684   1.409       .  A
C1683      H1688   1.083       .  S
C1684      C1685   1.407       .  A
C1685      C1686   1.406       .  A
C1685      H1689   1.083       .  S
C1686      C1687   1.399       .  A
C1687      H1690   1.083       .  S
C1691      C2036   1.486       .  S
C1691      C1692   1.410       .  A
C1691      C1696   1.408       .  A
C1692      C1693   1.403       .  A
C1692      H1697   1.083       .  S
C1693      C1694   1.407       .  A
C1694      C1695   1.408       .  A
C1694      H1698   1.083       .  S
C1695      C1696   1.402       .  A
C1696      H1699   1.083       .  S
C1700      C2026   1.488       .  S
C1700      C1701   1.406       .  A
C1700      C1705   1.409       .  A
C1701      C1702   1.404       .  A
C1701      H1706   1.083       .  S
C1702      C1703   1.407       .  A
C1703      C1704   1.407       .  A
C1703      H1707   1.083       .  S
C1704      C1705   1.403       .  A
C1705      H1708   1.083       .  S
C1709      C1746   1.469       .  S
C1709      C2099   1.487       .  S
C1709      N1727   1.349       .  A
N1710      N1727   1.324       .  A
N1710      N1732   1.319       .  A
N1710     Co1747   2.080   1_556  S
C1711      C1749   1.454       .  S
C1711      H1756   1.080       .  S
C1711      N1736   1.336       .  A
H1712      C1753   1.081       .  S
C1713      C1717   1.456       .  S
C1713      H1742   1.081       .  S
C1713      N1737   1.339       .  A
Co1714     N1732   2.100   1_554  S
Co1714     N1722   2.090   1_554  S
Co1714     N1754   2.083       .  S
Co1714     N1730   2.105       .  S
Co1714    Cl1758   2.447   1_554  S
N1715      C1753   1.341       .  A
N1715      N1722   1.320       .  A
N1715     Co1716   2.081       .  S
Co1716     N1719   2.081       .  S
Co1716     N1736   2.069   1_556  S
Co1716     N1723   2.089   1_556  S
Co1716    Cl1758   2.461       .  S
C1717      C2089   1.471       .  S
C1717      N1755   1.349       .  A
N1718      N1725   1.319       .  A
N1718      N1748   1.323       .  A
N1718     Co1751   2.077       .  S
N1719      N1737   1.319       .  A
N1719      N1755   1.325       .  A
N1720      C1749   1.354       .  A
N1720      N1730   1.328       .  A
H1721      C1746   1.080       .  S
N1722      N1743   1.324       .  A
N1723      N1741   1.318       .  A
N1723      N1728   1.326       .  A
C1724      C1752   1.456       .  S
C1724      C1989   1.476       .  S
C1724      N1728   1.351       .  A
N1725      C1740   1.343       .  A
N1725     Co1747   2.092   1_556  S
C1726      C1729   1.459       .  S
C1726      H1760   1.081       .  S
C1726      N1754   1.340       .  A
C1729      C2016   1.474       .  S
C1729      N1750   1.349       .  A
N1730      N1736   1.319       .  A
N1731      C1757   1.344       .  A
N1731      N1733   1.320       .  A
N1731     Co1747   2.090       .  S
N1732      C1746   1.343       .  A
N1733      N1761   1.323       .  A
N1733     Co1751   2.079   1_554  S
H1734      C1757   1.081       .  S
H1735      C1752   1.080       .  S
N1737     Co1751   2.081       .  S
N1738      N1750   1.324       .  A
N1738      N1754   1.320       .  A
N1738     Co1747   2.086       .  S
C1739      C1753   1.455       .  S
C1739      C2066   1.468       .  S
C1739      N1743   1.350       .  A
C1740      C1759   1.463       .  S
C1740      H1744   1.081       .  S
N1741      C1752   1.338       .  A
N1741     Co1751   2.076   1_554  S
C1745      C1757   1.458       .  S
C1745      C1999   1.466       .  S
C1745      N1761   1.346       .  A
Co1747    Cl1758   2.458   1_554  S
N1748      C1759   1.346       .  A
C1749      C2006   1.479       .  S
Co1751    Cl1758   2.448       .  S
C1759      C2079   1.476       .  S
C1762      C1986   1.488       .  S
C1762      C1763   1.412       .  A
C1762      C1767   1.406       .  A
C1763      C1764   1.408       .  A
C1763      H1768   1.082       .  S
C1764      C1816   1.474       .  S
C1764      C1765   1.390       .  A
C1765      C1766   1.397       .  A
C1765      H1769   1.084       .  S
C1766      C1845   1.461       .  S
C1766      C1767   1.399       .  A
C1767      H1770   1.084       .  S
C1771      C2019   1.484       .  S
C1771      C1772   1.406       .  A
C1771      C1776   1.409       .  A
C1772      C1773   1.396       .  A
C1772      H1777   1.083       .  S
C1773      C1846   1.476       .  S
C1773      C1774   1.415       .  A
C1774      C1775   1.399       .  A
C1774      H1778   1.084       .  S
C1775      C1817   1.486       .  S
C1775      C1776   1.408       .  A
C1776      H1779   1.084       .  S
C1780      C1996   1.478       .  S
C1780      C1781   1.405       .  A
C1780      C1785   1.403       .  A
C1781      C1782   1.404       .  A
C1781      H1786   1.084       .  S
C1782      C1815   1.479       .  S
C1782      C1783   1.410       .  A
C1783      C1784   1.403       .  A
C1783      H1787   1.084       .  S
C1784      C1844   1.482       .  S
C1784      C1785   1.405       .  A
C1785      H1788   1.084       .  S
O1789      C1797   1.258       .  A
O1789     Co1809   1.957       .  S
O1790      C1798   1.288       .  A
O1791      C1799   1.285       .  A
O1791     Co1811   2.018       .  S
O1792      C1800   1.244       .  A
O1792     Co1812   1.988       .  S
O1793      C1799   1.279       .  A
O1793     Co1810   1.961   1_565  S
O1794      C1800   1.253       .  A
O1795      C1798   1.292       .  A
O1795     Co1812   1.942       .  S
O1796      C1797   1.276       .  A
O1796     Co1811   2.041       .  S
C1797      C1876   1.482       .  S
C1798      C1867   1.481       .  S
C1799      C1885   1.460       .  S
C1800      C1858   1.476       .  S
O1801      C1814   1.280       .  A
O1802      C1815   1.250       .  A
O1802     Co1810   2.016   1_565  S
O1803      C1816   1.251       .  A
O1803     Co1811   1.949       .  S
O1804      C1817   1.293       .  A
O1804     Co1812   2.024       .  S
O1805      C1817   1.292       .  A
O1806      C1816   1.277       .  A
O1806     Co1809   2.035       .  S
O1807      C1814   1.285       .  A
O1807     Co1812   1.983       .  S
O1808      C1815   1.245       .  A
O1808     Co1811   1.975       .  S
Co1809     O1813   2.021       .  S
Co1810     O1813   2.026   1_545  S
Co1811     O1813   2.016       .  S
C1814      C1849   1.461       .  S
O1818      C1826   1.248       .  A
O1818     Co1838   2.014       .  S
O1819      C1827   1.280       .  A
O1819     Co1839   1.994       .  S
O1820      C1828   1.249       .  A
O1821      C1829   1.293       .  A
O1821     Co1841   2.023       .  S
O1822      C1828   1.276       .  A
O1822     Co1839   2.033       .  S
O1823      C1829   1.292       .  A
O1823     Co1838   1.951       .  S
O1824      C1827   1.284       .  A
O1825      C1826   1.243       .  A
O1825     Co1840   1.970       .  S
C1826      C1878   1.475       .  S
C1827      C1869   1.459       .  S
C1828      C1887   1.474       .  S
C1829      C1860   1.488       .  S
O1830      C1843   1.286       .  A
O1830     Co1838   2.018       .  S
O1831      C1844   1.256       .  A
O1831     Co1839   1.954       .  S
O1832      C1845   1.286       .  A
O1832     Co1840   2.018       .  S
O1833      C1846   1.244       .  A
O1834      C1846   1.252       .  A
O1834     Co1839   1.988       .  S
O1835      C1845   1.278       .  A
O1835     Co1838   1.959       .  S
O1836      C1843   1.292       .  A
O1836     Co1841   1.947       .  S
O1837      C1844   1.276       .  A
Co1838     O1842   2.028       .  S
Co1840     O1842   2.018       .  S
Co1841     O1842   2.031       .  S
C1843      C1851   1.479       .  S
C1847      C2009   1.483       .  S
C1847      C1848   1.404       .  A
C1847      C1852   1.415       .  A
C1848      C1849   1.392       .  A
C1848      H1853   1.084       .  S
C1849      C1850   1.404       .  A
C1850      C1851   1.388       .  A
C1850      H1854   1.084       .  S
C1851      C1852   1.414       .  A
C1852      H1855   1.083       .  S
C1856      C1976   1.486       .  S
C1856      C1857   1.406       .  A
C1856      C1861   1.409       .  A
C1857      C1858   1.395       .  A
C1857      H1862   1.083       .  S
C1858      C1859   1.414       .  A
C1859      C1860   1.399       .  A
C1859      H1863   1.084       .  S
C1860      C1861   1.410       .  A
C1861      H1864   1.083       .  S
C1865      C1969   1.474       .  S
C1865      C1866   1.414       .  A
C1865      C1870   1.399       .  A
C1866      C1867   1.415       .  A
C1866      H1871   1.083       .  S
C1867      C1868   1.389       .  A
C1868      C1869   1.404       .  A
C1868      H1872   1.084       .  S
C1869      C1870   1.392       .  A
C1870      H1873   1.084       .  S
C1874      C1959   1.498       .  S
C1874      C1875   1.412       .  A
C1874      C1879   1.410       .  A
C1875      C1876   1.404       .  A
C1875      H1880   1.082       .  S
C1876      C1877   1.398       .  A
C1877      C1878   1.406       .  A
C1877      H1881   1.084       .  S
C1878      C1879   1.403       .  A
C1879      H1882   1.081       .  S
C1883      C1949   1.506       .  S
C1883      C1884   1.413       .  A
C1883      C1888   1.417       .  A
C1884      C1885   1.396       .  A
C1884      H1889   1.080       .  S
C1885      C1886   1.391       .  A
C1886      C1887   1.388       .  A
C1886      H1890   1.085       .  S
C1887      C1888   1.412       .  A
C1888      H1891   1.080       .  S
C1892      C1929   1.466       .  S
C1892      C2059   1.482       .  S
C1892      N1910   1.348       .  A
N1893      N1910   1.324       .  A
N1893      N1915   1.319       .  A
N1893     Co1930   2.082       .  S
C1894      C1932   1.453       .  S
C1894      H1939   1.080       .  S
C1894      N1919   1.338       .  A
H1895      C1936   1.081       .  S
C1896      C1900   1.454       .  S
C1896      H1925   1.081       .  S
C1896      N1920   1.338       .  A
Co1897     N1905   2.089       .  S
Co1897     N1913   2.101       .  S
N1898      C1936   1.341       .  A
N1898      N1905   1.320       .  A
N1898     Co1899   2.081       .  S
Co1899     N1919   2.079       .  S
C1900      C2029   1.472       .  S
C1900      N1938   1.350       .  A
N1901      N1908   1.319       .  A
N1901      N1931   1.323       .  A
N1901     Co1934   2.080       .  S
N1902      N1920   1.320       .  A
N1902      N1938   1.326       .  A
N1903      C1932   1.352       .  A
N1903      N1913   1.328       .  A
H1904      C1929   1.081       .  S
N1905      N1926   1.324       .  A
N1906      N1924   1.319       .  A
N1906      N1911   1.324       .  A
C1907      C1935   1.459       .  S
C1907      C1946   1.479       .  S
C1907      N1911   1.350       .  A
N1908      C1923   1.342       .  A
C1909      C1912   1.457       .  S
C1909      H1943   1.081       .  S
C1909      N1937   1.343       .  A
C1912      C1979   1.469       .  S
C1912      N1933   1.349       .  A
N1913      N1919   1.321       .  A
N1914      C1940   1.340       .  A
N1914      N1916   1.319       .  A
N1915      C1929   1.342       .  A
N1916      N1944   1.324       .  A
N1916     Co1934   2.082       .  S
H1917      C1940   1.080       .  S
H1918      C1935   1.081       .  S
N1921      N1933   1.322       .  A
N1921      N1937   1.320       .  A
N1921     Co1930   2.086       .  S
C1922      C1936   1.455       .  S
C1922      C2039   1.470       .  S
C1922      N1926   1.351       .  A
C1923      C1942   1.461       .  S
C1923      H1927   1.081       .  S
N1924      C1935   1.341       .  A
C1928      C1940   1.463       .  S
C1928      C1956   1.482       .  S
C1928      N1944   1.351       .  A
Co1930    Cl1941   2.450       .  S
N1931      C1942   1.347       .  A
C1932      C1966   1.472       .  S
C1942      C2049   1.475       .  S
C1945      C1946   1.402       .  A
C1945      C1950   1.401       .  A
C1945      H1952   1.083       .  S
C1946      C1947   1.402       .  A
C1947      C1948   1.394       .  A
C1947      F1954   1.355       .  S
C1948      C1949   1.413       .  A
C1948      H1953   1.080       .  S
C1949      C1950   1.416       .  A
C1950      F1951   1.356       .  S
C1955      C1956   1.404       .  A
C1955      C1960   1.400       .  A
C1955      H1962   1.083       .  S
C1956      C1957   1.406       .  A
C1957      C1958   1.394       .  A
C1957      F1964   1.354       .  S
C1958      C1959   1.409       .  A
C1958      H1963   1.081       .  S
C1959      C1960   1.413       .  A
C1960      F1961   1.357       .  S
C1965      C1966   1.401       .  A
C1965      C1970   1.401       .  A
C1965      H1972   1.083       .  S
C1966      C1967   1.406       .  A
C1967      C1968   1.398       .  A
C1967      F1974   1.356       .  S
C1968      C1969   1.401       .  A
C1968      H1973   1.084       .  S
C1969      C1970   1.407       .  A
C1970      F1971   1.357       .  S
C1975      C1976   1.409       .  A
C1975      C1980   1.401       .  A
C1975      H1982   1.083       .  S
C1976      C1977   1.410       .  A
C1977      C1978   1.393       .  A
C1977      F1984   1.358       .  S
C1978      C1979   1.398       .  A
C1978      H1983   1.082       .  S
C1979      C1980   1.403       .  A
C1980      F1981   1.357       .  S
C1985      C1986   1.408       .  A
C1985      C1990   1.399       .  A
C1985      H1992   1.082       .  S
C1986      C1987   1.409       .  A
C1987      C1988   1.396       .  A
C1987      F1994   1.358       .  S
C1988      C1989   1.404       .  A
C1988      H1993   1.081       .  S
C1989      C1990   1.404       .  A
C1990      F1991   1.357       .  S
C1995      C1996   1.404       .  A
C1995      C2000   1.399       .  A
C1995      H2002   1.083       .  S
C1996      C1997   1.406       .  A
C1997      C1998   1.399       .  A
C1997      F2004   1.357       .  S
C1998      C1999   1.400       .  A
C1998      H2003   1.083       .  S
C1999      C2000   1.404       .  A
C2000      F2001   1.358       .  S
C2005      C2006   1.401       .  A
C2005      C2010   1.399       .  A
C2005      H2012   1.083       .  S
C2006      C2007   1.411       .  A
C2007      C2008   1.398       .  A
C2007      F2014   1.357       .  S
C2008      C2009   1.402       .  A
C2008      H2013   1.083       .  S
C2009      C2010   1.410       .  A
C2010      F2011   1.358       .  S
C2015      C2016   1.402       .  A
C2015      C2020   1.397       .  A
C2015      H2022   1.083       .  S
C2016      C2017   1.407       .  A
C2017      C2018   1.398       .  A
C2017      F2024   1.357       .  S
C2018      C2019   1.406       .  A
C2018      H2023   1.083       .  S
C2019      C2020   1.408       .  A
C2020      F2021   1.357       .  S
C2025      C2026   1.408       .  A
C2025      C2030   1.399       .  A
C2025      H2032   1.082       .  S
C2026      C2027   1.410       .  A
C2027      C2028   1.396       .  A
C2027      F2034   1.358       .  S
C2028      C2029   1.403       .  A
C2028      H2033   1.083       .  S
C2029      C2030   1.402       .  A
C2030      F2031   1.357       .  S
C2035      C2036   1.406       .  A
C2035      C2040   1.395       .  A
C2035      H2042   1.083       .  S
C2036      C2037   1.410       .  A
C2037      C2038   1.400       .  A
C2037      F2044   1.357       .  S
C2038      C2039   1.401       .  A
C2038      H2043   1.083       .  S
C2039      C2040   1.401       .  A
C2040      F2041   1.353       .  S
C2045      C2046   1.406       .  A
C2045      C2050   1.399       .  A
C2045      H2052   1.083       .  S
C2046      C2047   1.413       .  A
C2047      C2048   1.396       .  A
C2047      F2054   1.358       .  S
C2048      C2049   1.401       .  A
C2048      H2053   1.083       .  S
C2049      C2050   1.406       .  A
C2050      F2051   1.357       .  S
C2055      C2056   1.411       .  A
C2055      C2060   1.404       .  A
C2055      H2062   1.082       .  S
C2056      C2057   1.416       .  A
C2057      C2058   1.392       .  A
C2057      F2064   1.357       .  S
C2058      C2059   1.397       .  A
C2058      H2063   1.078       .  S
C2059      C2060   1.407       .  A
C2060      F2061   1.357       .  S
C2065      C2066   1.400       .  A
C2065      C2070   1.399       .  A
C2065      H2072   1.083       .  S
C2066      C2067   1.402       .  A
C2067      C2068   1.397       .  A
C2067      F2074   1.355       .  S
C2068      C2069   1.405       .  A
C2068      H2073   1.083       .  S
C2069      C2070   1.409       .  A
C2070      F2071   1.357       .  S
C2075      C2076   1.409       .  A
C2075      C2080   1.397       .  A
C2075      H2082   1.083       .  S
C2076      C2077   1.408       .  A
C2077      C2078   1.399       .  A
C2077      F2084   1.357       .  S
C2078      C2079   1.404       .  A
C2078      H2083   1.083       .  S
C2079      C2080   1.404       .  A
C2080      F2081   1.357       .  S
C2085      C2086   1.407       .  A
C2085      C2090   1.398       .  A
C2085      H2092   1.082       .  S
C2086      C2087   1.411       .  A
C2087      C2088   1.395       .  A
C2087      F2094   1.358       .  S
C2088      C2089   1.402       .  A
C2088      H2093   1.083       .  S
C2089      C2090   1.403       .  A
C2090      F2091   1.357       .  S
C2095      C2096   1.413       .  A
C2095      C2100   1.394       .  A
C2095      H2102   1.080       .  S
C2096      C2097   1.414       .  A
C2097      C2098   1.404       .  A
C2097      F2104   1.356       .  S
C2098      C2099   1.407       .  A
C2098      H2103   1.083       .  S
C2099      C2100   1.403       .  A
C2100      F2101   1.354       .  S
