geometry optimzed in LAMMPS
_audit_creation_date              2020-12-01 
_audit_creation_method            'lammps2cif' 
_symmetry_space_group_name_H-M    'P1' 
_symmetry_Int_Tables_number       1 
_symmetry_cell_setting            triclinic 
loop_ 
_symmetry_equiv_pos_as_xyz 
  x,y,z 
_cell_length_a                    50.5552013 
_cell_length_b                    49.90942066272648 
_cell_length_c                    30.229666902368155 
_cell_angle_alpha                 89.41800366381341 
_cell_angle_beta                  91.2880654917783 
_cell_angle_gamma                 122.32880930657144 
loop_ 
_atom_site_label 
_atom_site_type_symbol 
_atom_site_fract_x 
_atom_site_fract_y 
_atom_site_fract_z 
_atom_site_charge 
O1          O  0.45905317  0.48134233  0.29450071    -0.70600
O2          O  0.50098042  0.46268013  0.20930602    -0.70800
O3          O  0.49677784  0.45841742  0.29775385    -0.70700
O4          O  0.46322825  0.48501491  0.20629228    -0.70700
O5          O  0.50424678  0.53277686  0.21135402    -0.70700
O6          O  0.53687555  0.50648942  0.30461936    -0.70700
O7          O  0.54175419  0.51005903  0.21651435    -0.70600
O8          O  0.49945863  0.52919540  0.29968590    -0.70800
V9          V  0.48079239  0.47274094  0.25217892     1.35200
V10         V  0.51977828  0.51871302  0.25793572     1.35200
C11         C  0.47197488  0.50873344  0.31136827     0.78600
C12         C  0.52861084  0.48321933  0.19807458     0.78700
C13         C  0.52252652  0.47787299  0.31695099     0.78500
C14         C  0.47819567  0.51334269  0.19282163     0.78500
C15         C  0.82796093  0.40398616  0.00128053     0.04300
C16         C  0.84365528  0.41460062  0.04271391    -0.11900
C17         C  0.87657207  0.43222202  0.04552812     0.01800
C18         C  0.89375319  0.43940617  0.00680515    -0.10400
C19         C  0.87862949  0.43391992  0.46697710     0.04300
C20         C  0.84593507  0.41368284  0.46441160    -0.09800
H21         H  0.83033549  0.40969166  0.07257085     0.09900
H22         H  0.91913499  0.45354553  0.00866451     0.07400
H23         H  0.83482255  0.40359438  0.43269148     0.07300
C24         C  0.59404279  0.41879799  0.50861911     0.04300
C25         C  0.59477807  0.44083525  0.04747000    -0.11900
C26         C  0.58056584  0.45835096  0.04647875     0.01800
C27         C  0.56705467  0.45545642  0.50904615    -0.10400
C28         C  0.57257694  0.44597921  0.46878685     0.04300
C29         C  0.58705667  0.42863966  0.46856219    -0.09800
H30         H  0.59841243  0.43258912  0.07893671     0.09900
H31         H  0.55575513  0.46880696  0.50913216     0.07400
H32         H  0.59166746  0.42173183  0.43719698     0.07300
C33         C  0.64698291  0.34566313  0.01230051     0.04300
C34         C  0.67924746  0.35876219  0.00689160    -0.11900
C35         C  0.69145931  0.33943007  0.00140608     0.01800
C36         C  0.67051636  0.30634567  0.99916936    -0.10400
C37         C  0.63844884  0.29288681  0.00571104     0.04300
C38         C  0.62712033  0.31251986  0.01408260    -0.09800
H39         H  0.69502077  0.38424624  0.00653238     0.09900
H40         H  0.67904458  0.29105869  0.99204341     0.07400
H41         H  0.60243364  0.30172202  0.02035172     0.07300
C42         C  0.53943692  0.15956481  0.99016085     0.04300
C43         C  0.52335296  0.14276252  0.02835067    -0.11900
C44         C  0.49693739  0.11139508  0.02572788     0.01800
C45         C  0.48425171  0.09953428  0.98334849    -0.10400
C46         C  0.49855923  0.10637576  0.44763974     0.04300
C47         C  0.52709846  0.13549108  0.44963690    -0.09800
H48         H  0.53242779  0.15381740  0.06007103     0.09900
H49         H  0.46218617  0.07721504  0.97938252     0.07400
H50         H  0.54137595  0.14418158  0.42041726     0.07300
O51         O  0.46549311  0.00743385  0.28053616    -0.70600
O52         O  0.47637510  0.96457861  0.18588892    -0.70800
O53         O  0.47491255  0.95983475  0.27401348    -0.70700
O54         O  0.46585929  0.01165767  0.19179021    -0.70700
O55         O  0.51618594  0.04547375  0.19353898    -0.70700
O56         O  0.52500365  0.99369764  0.27938558    -0.70700
O57         O  0.52674193  0.99811203  0.19008937    -0.70600
O58         O  0.51578663  0.04142547  0.28228763    -0.70800
V59         V  0.47166727  0.98656182  0.23303552     1.35200
V60         V  0.51998597  0.01906089  0.23613402     1.35200
C61         C  0.48923288  0.03135152  0.29817596     0.78600
C62         C  0.50350034  0.97413514  0.17217711     0.78700
C63         C  0.50086097  0.96830016  0.29242984     0.78500
C64         C  0.48929458  0.03696292  0.17793593     0.78500
O65         O  0.97331006  0.46515065  0.30054441    -0.70600
O66         O  0.03543080  0.50223770  0.21228231    -0.70800
O67         O  0.03634705  0.50003746  0.30122085    -0.70700
O68         O  0.97259275  0.46738393  0.21165258    -0.70700
O69         O  0.97151827  0.51011563  0.21493289    -0.70700
O70         O  0.03557568  0.54280534  0.30372800    -0.70700
O71         O  0.03471176  0.54506460  0.21513522    -0.70600
O72         O  0.97323760  0.50835187  0.30379795    -0.70800
V73         V  0.00440404  0.48449669  0.25646872     1.35200
V74         V  0.00375462  0.52574148  0.25921374     1.35200
C75         C  0.96284084  0.48057441  0.31783073     0.78600
C76         C  0.04596637  0.53016669  0.19861205     0.78700
C77         C  0.04686404  0.52706181  0.31823428     0.78500
C78         C  0.96099195  0.48306997  0.19800984     0.78500
C79         C  0.40925954  0.57497791  0.00133420     0.04300
C80         C  0.41540001  0.56377029  0.04084518    -0.11900
C81         C  0.42965147  0.54614847  0.03975166     0.01800
C82         C  0.43530341  0.53749328  0.99881448    -0.10400
C83         C  0.42294371  0.54142692  0.45828921     0.04300
C84         C  0.40936508  0.55961710  0.45740571    -0.09800
H85         H  0.41031278  0.56984516  0.07249443     0.09900
H86         H  0.44589093  0.52349145  0.99769818     0.07400
H87         H  0.40589974  0.56797542  0.42594429     0.07300
C88         C  0.36155943  0.65919045  0.00079051     0.04300
C89         C  0.32705997  0.64476243  0.49712462    -0.11900
C90         C  0.31620201  0.66543427  0.49851823     0.01800
C91         C  0.33785226  0.69830771  0.49517226    -0.10400
C92         C  0.37096727  0.71257661  0.00014942     0.04300
C93         C  0.38203837  0.69218538  0.99724998    -0.09800
H94         H  0.31053790  0.61946357  0.50024190     0.09900
H95         H  0.32989448  0.71455316  0.49714403     0.07400
H96         H  0.40680853  0.70217653  0.99258846     0.07300
C97         C  0.18060145  0.60329379  0.51251190     0.04300
C98         C  0.16438951  0.59625385  0.05232312    -0.11900
C99         C  0.13151326  0.57858466  0.05130017     0.01800
C100        C  0.11467641  0.56951361  0.51190824    -0.10400
C101        C  0.13038288  0.57349164  0.47265212     0.04300
C102        C  0.16306697  0.58918090  0.47328122    -0.09800
H103        H  0.17674954  0.60492227  0.08373352     0.09900
H104        H  0.08929539  0.55649538  0.51156644     0.07400
H105        H  0.17479383  0.59091564  0.44283614     0.07300
C106        C  0.46661233  0.84757160  0.98867432     0.04300
C107        C  0.47910727  0.86165648  0.44354427    -0.11900
C108        C  0.49929649  0.89468104  0.44342166     0.01800
C109        C  0.51363491  0.91229528  0.98278331    -0.10400
C110        C  0.49916850  0.90013358  0.02351205     0.04300
C111        C  0.47550086  0.86763075  0.02600144    -0.09800
H112        H  0.47350107  0.84883883  0.41260185     0.09900
H113        H  0.53142035  0.93723795  0.97960113     0.07400
H114        H  0.46310840  0.85814308  0.05664224     0.07300
C115        C  0.39358865  0.74748149  0.99832882    -0.04200
C116        C  0.39334764  0.76314624  0.45142799    -0.01300
C117        C  0.41514116  0.79626582  0.45029706     0.03700
C118        C  0.44110873  0.81301366  0.99177518    -0.04200
C119        C  0.44123828  0.79426861  0.02721053    -0.01300
C120        C  0.41591669  0.76287138  0.03268712     0.03700
C121        C  0.37215174  0.74761124  0.41410065     0.38300
C122        C  0.46861904  0.80553001  0.05556569     0.38300
C123        C  0.41210072  0.74705690  0.07469203     0.36800
C124        C  0.41153659  0.81491603  0.41641426     0.36800
N125        N  0.40866451  0.73529431  0.10902439    -0.38100
N126        N  0.40834772  0.82942503  0.38908932    -0.38100
N127        N  0.49043490  0.81299688  0.07771265    -0.37500
N128        N  0.35608325  0.73564673  0.38337677    -0.37500
C129        C  0.21582531  0.62163967  0.51178914    -0.04200
C130        C  0.23289503  0.61183068  0.04288373    -0.01300
C131        C  0.26594428  0.62901660  0.04337968     0.03700
C132        C  0.28203518  0.65214183  0.50450189    -0.04200
C133        C  0.26464426  0.65808207  0.47313618    -0.01300
C134        C  0.23211528  0.64413572  0.47787389     0.03700
C135        C  0.21622317  0.58421180  0.07104819     0.38300
C136        C  0.27960764  0.67712125  0.43433467     0.38300
C137        C  0.21565471  0.65344324  0.44772491     0.36800
C138        C  0.28237049  0.62276063  0.07791830     0.36800
N139        N  0.20276218  0.66094696  0.42340798    -0.38100
N140        N  0.29548113  0.61791667  0.10558228    -0.38100
N141        N  0.29070877  0.69187447  0.40274320    -0.37500
N142        N  0.20345438  0.56216951  0.09363172    -0.37500
C143        C  0.39643461  0.59597409  0.00227934    -0.04200
C144        C  0.41094225  0.62355671  0.02896721    -0.01300
C145        C  0.39889630  0.64335177  0.02970733     0.03700
C146        C  0.37380763  0.63755717  0.00090804    -0.04200
C147        C  0.35662599  0.60760575  0.46381998    -0.01300
C148        C  0.36537374  0.58507536  0.46688951     0.03700
C149        C  0.43893709  0.63231127  0.05507166     0.38300
C150        C  0.33438810  0.60411394  0.42959114     0.38300
C151        C  0.34829395  0.55621506  0.44076003     0.36800
C152        C  0.41232187  0.66922645  0.06127396     0.36800
N153        N  0.33464884  0.53320071  0.41992363    -0.38100
N154        N  0.42387526  0.68952502  0.08702490    -0.38100
N155        N  0.31682236  0.60143684  0.40209432    -0.37500
N156        N  0.46118095  0.63932199  0.07602417    -0.37500
C157        C  0.07112183  0.53982191  0.35515709    -0.04200
C158        C  0.08572730  0.57197103  0.36929127    -0.01300
C159        C  0.10589581  0.58302305  0.40679190     0.03700
C160        C  0.11219931  0.56257344  0.43043477    -0.04200
C161        C  0.09938968  0.53131177  0.41559635    -0.01300
C162        C  0.07900855  0.51985914  0.37819467     0.03700
C163        C  0.08024759  0.59419822  0.34596016     0.38300
C164        C  0.10680206  0.51073136  0.43963413     0.38300
C165        C  0.06585238  0.48720280  0.36477524     0.36800
C166        C  0.11971089  0.61548341  0.42190203     0.36800
N167        N  0.05554456  0.46113134  0.35433726    -0.38100
N168        N  0.13066287  0.64131610  0.43398847    -0.38100
N169        N  0.11281563  0.49444145  0.45889742    -0.37500
N170        N  0.07592356  0.61206453  0.32771812    -0.37500
C171        C  0.11328680  0.56919069  0.09255871    -0.04200
C172        C  0.10848722  0.54268301  0.11656044    -0.01300
C173        C  0.08815319  0.53119450  0.15277537     0.03700
C174        C  0.07056978  0.54484842  0.16363859    -0.04200
C175        C  0.07627095  0.57216897  0.13976325    -0.01300
C176        C  0.09788439  0.58443148  0.10500777     0.03700
C177        C  0.12317591  0.52603312  0.10235826     0.38300
C178        C  0.05949383  0.58754020  0.14943918     0.38300
C179        C  0.10389179  0.61251214  0.08118809     0.36800
C180        C  0.08599519  0.50551001  0.17878271     0.36800
N181        N  0.10879395  0.63495285  0.06226943    -0.38100
N182        N  0.08459869  0.48514436  0.19942614    -0.38100
N183        N  0.04626224  0.60000194  0.15689585    -0.37500
N184        N  0.13441203  0.51237671  0.09072204    -0.37500
C185        C  0.50777580  0.95801500  0.13508361    -0.04200
C186        C  0.51141266  0.97033482  0.09217796    -0.01300
C187        C  0.50709475  0.95119734  0.05549009     0.03700
C188        C  0.50547905  0.92199402  0.06170074    -0.04200
C189        C  0.50874128  0.91337738  0.10541508    -0.01300
C190        C  0.50747257  0.92997820  0.14195940     0.03700
C191        C  0.52110405  0.00319390  0.08580908     0.38300
C192        C  0.51613835  0.88944181  0.11319463     0.38300
C193        C  0.50705499  0.91893193  0.18667730     0.36800
C194        C  0.50290186  0.96159266  0.01237324     0.36800
N195        N  0.50670416  0.91009778  0.22233175    -0.38100
N196        N  0.49013795  0.96676480  0.48019887    -0.38100
N197        N  0.52344794  0.87153030  0.12097982    -0.37500
N198        N  0.52995026  0.02966897  0.08043075    -0.37500
C199        C  0.50153154  0.94949157  0.33056808    -0.04200
C200        C  0.52635007  0.94447391  0.33781840    -0.01300
C201        C  0.52575066  0.92609813  0.37430453     0.03700
C202        C  0.50020072  0.91233276  0.40307168    -0.04200
C203        C  0.47538671  0.91718216  0.39566771    -0.01300
C204        C  0.47641629  0.93627454  0.36054177     0.03700
C205        C  0.55224253  0.95777673  0.30762893     0.38300
C206        C  0.44889424  0.90311043  0.42518339     0.38300
C207        C  0.45223730  0.94365748  0.35718056     0.36800
C208        C  0.55126280  0.92127090  0.38233324     0.36800
N209        N  0.43301558  0.94957219  0.35481936    -0.38100
N210        N  0.57162149  0.91738311  0.38881372    -0.38100
N211        N  0.42787278  0.89200972  0.44873983    -0.37500
N212        N  0.57292216  0.96839539  0.28350696    -0.37500
C213        C  0.49280165  0.08455039  0.41075378    -0.04200
C214        C  0.47204252  0.07962227  0.37532614    -0.01300
C215        C  0.46927021  0.06063085  0.33895709     0.03700
C216        C  0.48726412  0.04665641  0.33836892    -0.04200
C217        C  0.50632355  0.04988586  0.37537516    -0.01300
C218        C  0.50926187  0.06893735  0.41124143     0.03700
C219        C  0.45429882  0.09473290  0.37589906     0.38300
C220        C  0.52305250  0.03358941  0.37674811     0.38300
C221        C  0.52963489  0.07281601  0.44864144     0.36800
C222        C  0.44908256  0.05661664  0.30146163     0.36800
N223        N  0.54573217  0.07587443  0.47854513    -0.38100
N224        N  0.43296186  0.05332636  0.27147820    -0.38100
N225        N  0.53651568  0.02076387  0.37836067    -0.37500
N226        N  0.44009402  0.10677035  0.37645653    -0.37500
C227        C  0.48696354  0.08966300  0.06570536    -0.04200
C228        C  0.47778649  0.05716904  0.06186472    -0.01300
C229        C  0.47401589  0.03916146  0.10000357     0.03700
C230        C  0.48524627  0.05432959  0.14117790    -0.04200
C231        C  0.49244222  0.08552155  0.14622016    -0.01300
C232        C  0.49048392  0.10200931  0.10921097     0.03700
C233        C  0.47402000  0.04167227  0.01975346     0.38300
C234        C  0.50085371  0.10017993  0.18965398     0.38300
C235        C  0.49065743  0.13077590  0.11646664     0.36800
C236        C  0.45958858  0.00502062  0.09645007     0.36800
N237        N  0.49063465  0.15363572  0.12241946    -0.38100
N238        N  0.44776276  0.97782778  0.09344698    -0.38100
N239        N  0.50765564  0.11184295  0.22435228    -0.37500
N240        N  0.46424523  0.02198282  0.49320031    -0.37500
C241        C  0.56681868  0.19337269  0.99269274    -0.04200
C242        C  0.57040732  0.20797594  0.45685916    -0.01300
C243        C  0.59690346  0.23908008  0.45781669     0.03700
C244        C  0.61575173  0.25828372  0.99997957    -0.04200
C245        C  0.61246854  0.23651214  0.03274712    -0.01300
C246        C  0.58984280  0.20386434  0.02723152     0.03700
C247        C  0.54647023  0.19989187  0.42296374     0.38300
C248        C  0.63128080  0.24772151  0.07311854     0.38300
C249        C  0.59130239  0.18138331  0.05633582     0.39100
C250        C  0.60431294  0.25935739  0.41938361     0.36800
N251        N  0.59258142  0.16351807  0.07957810    -0.38100
N252        N  0.61079556  0.27518075  0.38824104    -0.38100
N253        N  0.64553086  0.25635053  0.10602202    -0.37500
N254        N  0.52741474  0.19362143  0.39595608    -0.37500
C255        C  0.60649138  0.39747996  0.50845180    -0.04200
C256        C  0.64004590  0.41692103  0.03640891    -0.01300
C257        C  0.64924251  0.39477660  0.03994904     0.03700
C258        C  0.63414209  0.36678477  0.01375492    -0.04200
C259        C  0.60385230  0.34997425  0.48108215    -0.01300
C260        C  0.59124023  0.36923936  0.48308912     0.03700
C261        C  0.65788231  0.44687612  0.06001122     0.38300
C262        C  0.58959427  0.32357404  0.45029828     0.38300
C263        C  0.56198841  0.35936566  0.45961659     0.36800
C264        C  0.67344713  0.40040478  0.07213851     0.36800
N265        N  0.53869684  0.35143102  0.44088027    -0.38100
N266        N  0.69272897  0.40496410  0.09787739    -0.38100
N267        N  0.57719316  0.30268518  0.42550108    -0.37500
N268        N  0.67202715  0.47072628  0.07890707    -0.37500
C269        C  0.89781033  0.44369769  0.42660148    -0.04200
C270        C  0.90115656  0.46889762  0.40070598    -0.01300
C271        C  0.92116245  0.47995083  0.36413381     0.03700
C272        C  0.93944154  0.46689383  0.35429346    -0.04200
C273        C  0.93602541  0.44159837  0.38097156    -0.01300
C274        C  0.91486582  0.42977589  0.41628679     0.03700
C275        C  0.88502238  0.48450287  0.41299208     0.38300
C276        C  0.95523429  0.42849039  0.37407720     0.38300
C277        C  0.91098477  0.40353859  0.44281841     0.36800
C278        C  0.92259013  0.50484686  0.33698845     0.36800
N279        N  0.90772625  0.37840375  0.95650888    -0.38100
N280        N  0.92366859  0.52474289  0.31554040    -0.38100
N281        N  0.97060332  0.41804312  0.36895934    -0.37500
N282        N  0.87253541  0.49727611  0.42299189    -0.37500
C283        C  0.89398371  0.44487492  0.08838977    -0.04200
C284        C  0.91281243  0.47798334  0.09520454    -0.01300
C285        C  0.93411969  0.49061147  0.13146863     0.03700
C286        C  0.93611531  0.47012368  0.16234147    -0.04200
C287        C  0.91503187  0.43690924  0.15754227    -0.01300
C288        C  0.89475919  0.42440047  0.12015494     0.03700
C289        C  0.91073417  0.49916738  0.06406482     0.38300
C290        C  0.91372523  0.41534577  0.19129240     0.38300
C291        C  0.87620739  0.39040077  0.11322000     0.36800
C292        C  0.95486630  0.52475566  0.13535767     0.36800
N293        N  0.86198551  0.36320555  0.10822123    -0.38100
N294        N  0.97132162  0.55201636  0.13823375    -0.38100
N295        N  0.91249866  0.39811696  0.21827986    -0.37500
N296        N  0.89691983  0.51936993  0.55426182    -0.37500
C297        C  0.72620806  0.35415275  0.99814979    -0.04200
C298        C  0.74192680  0.34337773  0.02521968    -0.01300
C299        C  0.77474499  0.35820341  0.02352560     0.03700
C300        C  0.79286530  0.38594675  0.99819851    -0.04200
C301        C  0.77548594  0.39238322  0.46679112    -0.01300
C302        C  0.74241866  0.37340416  0.46451667     0.03700
C303        C  0.72485653  0.31781150  0.05649305     0.38300
C304        C  0.79161456  0.41881176  0.43646487     0.38300
C305        C  0.72572415  0.37806044  0.42859343     0.36800
C306        C  0.78955528  0.34381329  0.04652358     0.36800
N307        N  0.71238758  0.38172427  0.39996306    -0.38100
N308        N  0.80063831  0.33144416  0.06442053    -0.38100
N309        N  0.80407598  0.43971284  0.41190140    -0.37500
N310        N  0.71185678  0.29750615  0.08177361    -0.37500
C311        C  0.56948634  0.46438681  0.08782334    -0.04200
C312        C  0.54428970  0.43900223  0.11027153    -0.01300
C313        C  0.53193099  0.44483806  0.14761824     0.03700
C314        C  0.54462512  0.47640254  0.16279695    -0.04200
C315        C  0.57174988  0.50150576  0.14197566    -0.01300
C316        C  0.58352824  0.49548267  0.10409706     0.03700
C317        C  0.53039250  0.40679358  0.09400320     0.38300
C318        C  0.58806565  0.53371505  0.15893403     0.38300
C319        C  0.61012466  0.52139871  0.08150409     0.36800
C320        C  0.50641388  0.41792221  0.17034276     0.36800
N321        N  0.63121489  0.54204179  0.06334961    -0.38100
N322        N  0.48608377  0.39630755  0.18823406    -0.38100
N323        N  0.60143281  0.55943152  0.17239341    -0.37500
N324        N  0.51949277  0.38117634  0.08101187    -0.37500
C325        C  0.53543871  0.46760028  0.35357731    -0.04200
C326        C  0.51512490  0.44407706  0.38398693    -0.01300
C327        C  0.52747886  0.43606053  0.42032945     0.03700
C328        C  0.56016189  0.45185984  0.42734732    -0.04200
C329        C  0.58052054  0.47433177  0.39632962    -0.01300
C330        C  0.56825549  0.48187662  0.35921950     0.03700
C331        C  0.48143270  0.42871275  0.37926180     0.38300
C332        C  0.61412072  0.49034235  0.40334081     0.38300
C333        C  0.58953624  0.50374879  0.32635742     0.36800
C334        C  0.50647433  0.41151430  0.45088085     0.36800
N335        N  0.60651447  0.52105432  0.30003524    -0.38100
N336        N  0.48983164  0.39195255  0.47527154    -0.38100
N337        N  0.64091337  0.50310817  0.40907226    -0.37500
N338        N  0.45451730  0.41619129  0.37579368    -0.37500
C339        C  0.43226075  0.53316155  0.41695659    -0.04200
C340        C  0.41909393  0.50106434  0.40564950    -0.01300
C341        C  0.43085428  0.49282228  0.36995211     0.03700
C342        C  0.45597864  0.51684555  0.34491925    -0.04200
C343        C  0.46691737  0.54911090  0.35394923    -0.01300
C344        C  0.45570923  0.55716485  0.39048609     0.03700
C345        C  0.39352177  0.47641183  0.43129734     0.38300
C346        C  0.48931513  0.57436072  0.32542031     0.38300
C347        C  0.46946485  0.59028982  0.40205026     0.36800
C348        C  0.41699370  0.45948246  0.35997297     0.36800
N349        N  0.48046001  0.61667672  0.41132761    -0.38100
N350        N  0.40546153  0.43279749  0.35214411    -0.38100
N351        N  0.50705069  0.59455596  0.30266964    -0.37500
N352        N  0.37318939  0.45684996  0.45186410    -0.37500
C353        C  0.46586122  0.52326209  0.15526507    -0.04200
C354        C  0.43385933  0.51327638  0.15270024    -0.01300
C355        C  0.42186789  0.52088979  0.11528069     0.03700
C356        C  0.44199163  0.53942961  0.08084510    -0.04200
C357        C  0.47429944  0.55078251  0.08464626    -0.01300
C358        C  0.48596109  0.54200382  0.12093870     0.03700
C359        C  0.41332753  0.49565170  0.18893626     0.38300
C360        C  0.49580653  0.57178009  0.05119974     0.38300
C361        C  0.51839959  0.55092682  0.12141775     0.36800
C362        C  0.38867213  0.50882622  0.11169391     0.36800
N363        N  0.54422965  0.55797072  0.12123459    -0.38100
N364        N  0.36217656  0.49918433  0.10885817    -0.38100
N365        N  0.51291100  0.58845082  0.02450279    -0.37500
N366        N  0.39704747  0.48173445  0.21798621    -0.37500
O367        O  0.46360518  0.48826714  0.79385980    -0.70600
O368        O  0.50128096  0.46541828  0.70715576    -0.70800
O369        O  0.50036966  0.46435762  0.79564913    -0.70700
O370        O  0.46441734  0.48889952  0.70526338    -0.70700
O371        O  0.50549860  0.53659785  0.70703200    -0.70700
O372        O  0.54136594  0.51211558  0.79809923    -0.70700
O373        O  0.54259769  0.51280754  0.70962129    -0.70600
O374        O  0.50461767  0.53571697  0.79575043    -0.70800
V375        V  0.48320905  0.47765775  0.75054550     1.35200
V376        V  0.52272799  0.52342546  0.75247952     1.35200
C377        C  0.47759159  0.51598557  0.80989344     0.78600
C378        C  0.52864189  0.48500394  0.69393275     0.78700
C379        C  0.52696673  0.48399011  0.81249245     0.78500
C380        C  0.47869361  0.51693169  0.69065230     0.78500
C381        C  0.82768497  0.40684028  0.50242854     0.04300
C382        C  0.84319600  0.41978901  0.54344336    -0.11900
C383        C  0.87605640  0.43856510  0.54635410     0.01800
C384        C  0.89350773  0.44591825  0.50794836    -0.10400
C385        C  0.87861506  0.42953532  0.96557061     0.04300
C386        C  0.84581238  0.41135996  0.96284473    -0.09800
H387        H  0.82984489  0.41522275  0.57315922     0.09900
H388        H  0.91884204  0.46096928  0.50997732     0.07400
H389        H  0.83427785  0.40348009  0.93075962     0.07300
C390        C  0.60257226  0.43234755  0.00805956     0.04300
C391        C  0.58768599  0.42802217  0.54890727    -0.11900
C392        C  0.57473500  0.44683605  0.54918599     0.01800
C393        C  0.57373243  0.46722278  0.00592335    -0.10400
C394        C  0.58043773  0.45811368  0.96614947     0.04300
C395        C  0.59592397  0.44170642  0.96730510    -0.09800
H396        H  0.59236267  0.42023141  0.58000540     0.09900
H397        H  0.56137483  0.47952548  0.00526707     0.07400
H398        H  0.60086767  0.43439009  0.93654954     0.07300
C399        C  0.64431994  0.33693169  0.50561084     0.04300
C400        C  0.67682760  0.35139668  0.50119163    -0.11900
C401        C  0.69058674  0.33333268  0.49851289     0.01800
C402        C  0.67112876  0.30000551  0.49776371    -0.10400
C403        C  0.63855821  0.28514465  0.50147341     0.04300
C404        C  0.62558219  0.30369155  0.50707992    -0.09800
H405        H  0.69167714  0.37700308  0.49998886     0.09900
H406        H  0.68120004  0.28575261  0.49352264     0.07400
H407        H  0.60056010  0.29196751  0.51141272     0.07300
C408        C  0.53797026  0.15264686  0.48935450     0.04300
C409        C  0.52203245  0.13739712  0.52840162    -0.11900
C410        C  0.49435410  0.10678458  0.52735882     0.01800
C411        C  0.48067231  0.09418917  0.48562080    -0.10400
C412        C  0.50256982  0.11338402  0.94605252     0.04300
C413        C  0.53007185  0.14336253  0.94953773    -0.09800
H414        H  0.53214942  0.14899068  0.55954440     0.09900
H415        H  0.45795231  0.07247071  0.48279099     0.07400
H416        H  0.54469399  0.15354693  0.92084440     0.07300
O417        O  0.46550117  0.00859732  0.78641947    -0.70600
O418        O  0.46939953  0.96129440  0.69122500    -0.70800
O419        O  0.47192721  0.95883903  0.77952054    -0.70700
O420        O  0.46188461  0.01034200  0.69799694    -0.70700
O421        O  0.51240115  0.04256041  0.69538737    -0.70700
O422        O  0.52240709  0.99090047  0.77993224    -0.70700
O423        O  0.52000911  0.99334913  0.69047528    -0.70600
O424        O  0.51602953  0.04064119  0.78386498    -0.70800
V425        V  0.46819361  0.98538331  0.73876065     1.35200
V426        V  0.51675988  0.01624271  0.73737490     1.35200
C427        C  0.49044689  0.03265191  0.80141968     0.78600
C428        C  0.49546829  0.96955355  0.67461484     0.78700
C429        C  0.49837138  0.96637705  0.79512846     0.78500
C430        C  0.48521807  0.03481135  0.68218549     0.78500
O431        O  0.97404364  0.46710097  0.79852745    -0.70600
O432        O  0.03590805  0.50713624  0.71094304    -0.70800
O433        O  0.03714369  0.50290615  0.79934758    -0.70700
O434        O  0.97316677  0.47171745  0.71022308    -0.70700
O435        O  0.97134233  0.51382294  0.71645174    -0.70700
O436        O  0.03563584  0.54517075  0.80497819    -0.70700
O437        O  0.03482373  0.54969588  0.71649792    -0.70600
O438        O  0.97312918  0.50967326  0.80493537    -0.70800
V439        V  0.00504557  0.48803571  0.75486019     1.35200
V440        V  0.00374817  0.52879488  0.76047792     1.35200
C441        C  0.96295891  0.48149893  0.81705603     0.78600
C442        C  0.04640774  0.53537798  0.69898551     0.78700
C443        C  0.04744461  0.52950128  0.81765916     0.78500
C444        C  0.96087682  0.48712991  0.69839498     0.78500
C445        C  0.40142728  0.56801181  0.49695395     0.04300
C446        C  0.40734009  0.55777584  0.53754573    -0.11900
C447        C  0.42311170  0.54170247  0.53857828     0.01800
C448        C  0.42993672  0.53276594  0.49888217    -0.10400
C449        C  0.42957691  0.54853101  0.95938739     0.04300
C450        C  0.41706230  0.56766450  0.96068729    -0.09800
H451        H  0.40168891  0.56420389  0.56846580     0.09900
H452        H  0.44218419  0.52034839  0.49962970     0.07400
H453        H  0.41374353  0.57709566  0.93011156     0.07300
C454        C  0.35899081  0.65634082  0.49253818     0.04300
C455        C  0.32935679  0.64682097  0.00496352    -0.11900
C456        C  0.31761564  0.66681455  0.00704168     0.01800
C457        C  0.33885724  0.69985802  0.00545302    -0.10400
C458        C  0.36989526  0.71030235  0.49020316     0.04300
C459        C  0.38021112  0.68919071  0.48856274    -0.09800
H460        H  0.31329215  0.62140010  0.00701997     0.09900
H461        H  0.33054444  0.71573609  0.00861873     0.07400
H462        H  0.40489463  0.69843258  0.48444621     0.07300
C463        C  0.18117832  0.60235168  0.01295047     0.04300
C464        C  0.16433563  0.59973643  0.55173062    -0.11900
C465        C  0.13141454  0.58193393  0.55165582     0.01800
C466        C  0.11529458  0.56824065  0.01082653    -0.10400
C467        C  0.13149602  0.57455656  0.97143326     0.04300
C468        C  0.16429202  0.59092426  0.97255616    -0.09800
H469        H  0.17704844  0.61043488  0.58233778     0.09900
H470        H  0.08990574  0.55495851  0.01001194     0.07400
H471        H  0.17659163  0.59485552  0.94191458     0.07300
C472        C  0.46354380  0.84585270  0.48230511     0.04300
C473        C  0.48030898  0.86121735  0.94783951    -0.11900
C474        C  0.50154646  0.89397454  0.94434757     0.01800
C475        C  0.50802389  0.91127699  0.48356545    -0.10400
C476        C  0.49121644  0.89675897  0.52221625     0.04300
C477        C  0.46876328  0.86385648  0.52090702    -0.09800
H478        H  0.47253561  0.84708103  0.91794755     0.09900
H479        H  0.52517912  0.93652075  0.48305432     0.07400
H480        H  0.45446991  0.85221458  0.54946066     0.07300
C481        C  0.39315602  0.74512662  0.48787039    -0.04200
C482        C  0.39444961  0.76517596  0.96115414    -0.01300
C483        C  0.41627422  0.79824984  0.95978459     0.03700
C484        C  0.43989912  0.81085156  0.48225486    -0.04200
C485        C  0.44140356  0.79177758  0.51577742    -0.01300
C486        C  0.41647553  0.76025215  0.52122436     0.03700
C487        C  0.37425693  0.74921271  0.92305509     0.38300
C488        C  0.46988966  0.80327034  0.54182038     0.38300
C489        C  0.41355019  0.74466970  0.56308744     0.36800
C490        C  0.41231428  0.81661863  0.92581433     0.36800
N491        N  0.41096827  0.73354187  0.59770512    -0.38100
N492        N  0.40872095  0.83084892  0.89848067    -0.38100
N493        N  0.49295971  0.81145791  0.56128763    -0.37500
N494        N  0.35905985  0.73672815  0.89180669    -0.37500
C495        C  0.21635147  0.62050133  0.01377123    -0.04200
C496        C  0.23342153  0.61593232  0.54342903    -0.01300
C497        C  0.26633532  0.63201486  0.54068885     0.03700
C498        C  0.28300956  0.65265692  0.01126139    -0.04200
C499        C  0.26647630  0.66130626  0.98204892    -0.01300
C500        C  0.23365835  0.64640213  0.98479045     0.03700
C501        C  0.21802861  0.59265976  0.57813758     0.38300
C502        C  0.28263023  0.68474589  0.94780598     0.38300
C503        C  0.21789356  0.65827290  0.95798497     0.36800
C504        C  0.28412693  0.62783827  0.57545044     0.36800
N505        N  0.20559102  0.66797440  0.93653884    -0.38100
N506        N  0.29835492  0.62456417  0.60311745    -0.38100
N507        N  0.29463568  0.70333651  0.92006821    -0.37500
N508        N  0.20642370  0.57438236  0.60635597    -0.37500
C509        C  0.39011113  0.59028476  0.49591238    -0.04200
C510        C  0.40500368  0.61775942  0.52288856    -0.01300
C511        C  0.39380082  0.63820655  0.52334580     0.03700
C512        C  0.37011838  0.63390728  0.49299713    -0.04200
C513        C  0.36018919  0.61062859  0.97279554    -0.01300
C514        C  0.37035300  0.58920249  0.97518032     0.03700
C515        C  0.43268209  0.62589954  0.54941457     0.38300
C516        C  0.33655658  0.60545657  0.93988117     0.38300
C517        C  0.35324230  0.55963719  0.95057325     0.36800
C518        C  0.40603431  0.66266169  0.55693899     0.36800
N519        N  0.33953105  0.53595999  0.93120302    -0.38100
N520        N  0.41641958  0.68134815  0.58495124    -0.38100
N521        N  0.31782909  0.60136208  0.91343692    -0.37500
N522        N  0.45469920  0.63242093  0.57060459    -0.37500
C523        C  0.07209350  0.54187147  0.85398916    -0.04200
C524        C  0.08813038  0.57431737  0.86709371    -0.01300
C525        C  0.10812227  0.58504296  0.90482879     0.03700
C526        C  0.11344949  0.56407572  0.92900531    -0.04200
C527        C  0.09927728  0.53241877  0.91492410    -0.01300
C528        C  0.07879082  0.52126438  0.87763079     0.03700
C529        C  0.08456315  0.59719682  0.84200370     0.38300
C530        C  0.10510927  0.51103379  0.93994729     0.38300
C531        C  0.06426840  0.48827714  0.86490133     0.36800
C532        C  0.12216430  0.61747860  0.92010633     0.36800
N533        N  0.05291463  0.46195684  0.85492236    -0.38100
N534        N  0.13306667  0.64324150  0.93246682    -0.38100
N535        N  0.10977288  0.49408725  0.96012418    -0.37500
N536        N  0.08185014  0.61558037  0.82216571    -0.37500
C537        C  0.11372352  0.57397642  0.59336144    -0.04200
C538        C  0.11088417  0.54946149  0.62039690    -0.01300
C539        C  0.09082651  0.53869840  0.65684485     0.03700
C540        C  0.07145352  0.55074675  0.66487571    -0.04200
C541        C  0.07545180  0.57640951  0.63859067    -0.01300
C542        C  0.09672523  0.58806792  0.60333197     0.03700
C543        C  0.12695651  0.53365110  0.60889878     0.38300
C544        C  0.05714478  0.59040140  0.64636757     0.38300
C545        C  0.10056953  0.61407806  0.57630370     0.36800
C546        C  0.09071430  0.51539957  0.68615481     0.36800
N547        N  0.10373438  0.63483988  0.55470289    -0.38100
N548        N  0.09081903  0.49693450  0.70951636    -0.38100
N549        N  0.04267445  0.60173810  0.65243703    -0.37500
N550        N  0.13921242  0.52053029  0.59950892    -0.37500
C551        C  0.49716248  0.95222477  0.63657512    -0.04200
C552        C  0.50129351  0.96499055  0.59383856    -0.01300
C553        C  0.49683679  0.94615145  0.55666848     0.03700
C554        C  0.49449864  0.91652071  0.56193789    -0.04200
C555        C  0.49505715  0.90607780  0.60574947    -0.01300
C556        C  0.49447752  0.92292879  0.64263455     0.03700
C557        C  0.51174582  0.99809693  0.58800320     0.38300
C558        C  0.49774190  0.87900468  0.61386400     0.38300
C559        C  0.49264816  0.91092175  0.68714970     0.36800
C560        C  0.49301372  0.95721073  0.51383136     0.36800
N561        N  0.49125020  0.90142374  0.72266258    -0.38100
N562        N  0.49981448  0.97073027  0.97850988    -0.38100
N563        N  0.50026402  0.85782059  0.62228700    -0.37500
N564        N  0.52120921  0.02473784  0.58295044    -0.37500
C565        C  0.49993417  0.94747492  0.83243923    -0.04200
C566        C  0.52377791  0.94070312  0.83610444    -0.01300
C567        C  0.52413751  0.92238241  0.87198447     0.03700
C568        C  0.50051611  0.91044981  0.90378885    -0.04200
C569        C  0.47645862  0.91675482  0.89971705    -0.01300
C570        C  0.47651527  0.93565075  0.86499122     0.03700
C571        C  0.54755973  0.95198575  0.80273749     0.38300
C572        C  0.45196705  0.90463354  0.93241935     0.38300
C573        C  0.45310434  0.94414103  0.86447417     0.36800
C574        C  0.54863205  0.91567361  0.87629184     0.36800
N575        N  0.43446700  0.95088455  0.86419802    -0.38100
N576        N  0.56810886  0.91018666  0.87984428    -0.38100
N577        N  0.43254496  0.89516281  0.95849587    -0.37500
N578        N  0.56654976  0.96093342  0.77608102    -0.37500
C579        C  0.49842080  0.09250174  0.90858887    -0.04200
C580        C  0.47724764  0.08650564  0.87328020    -0.01300
C581        C  0.47337257  0.06571629  0.83875259     0.03700
C582        C  0.49077245  0.05104961  0.83966083    -0.04200
C583        C  0.51123267  0.05641191  0.87579980    -0.01300
C584        C  0.51528069  0.07728118  0.90984487     0.03700
C585        C  0.46015365  0.10232533  0.87205428     0.38300
C586        C  0.52772539  0.03989744  0.87850980     0.38300
C587        C  0.53672811  0.08294847  0.94659348     0.36800
C588        C  0.45239471  0.06029086  0.80165122     0.36800
N589        N  0.55367001  0.08747337  0.97603326    -0.38100
N590        N  0.43565640  0.05588983  0.77198878    -0.38100
N591        N  0.54081558  0.02670362  0.88084262    -0.37500
N592        N  0.44660962  0.11507357  0.87102799    -0.37500
C593        C  0.48368733  0.08616353  0.56842991    -0.04200
C594        C  0.47231914  0.05301438  0.56632630    -0.01300
C595        C  0.46758418  0.03564895  0.60541909     0.03700
C596        C  0.48061437  0.05177467  0.64553732    -0.04200
C597        C  0.49017886  0.08380004  0.64897959    -0.01300
C598        C  0.48871100  0.09996377  0.61124001     0.03700
C599        C  0.46800494  0.03626512  0.52519354     0.38300
C600        C  0.50087392  0.09980551  0.69138822     0.38300
C601        C  0.49133378  0.13010209  0.61703166     0.36800
C602        C  0.45099808  0.00120663  0.60377956     0.36800
N603        N  0.49329365  0.15408358  0.62184745    -0.38100
N604        N  0.43750177  0.97380042  0.60242620    -0.38100
N605        N  0.50956973  0.11256756  0.72523662    -0.37500
N606        N  0.47053079  0.02831378  0.98691931    -0.37500
C607        C  0.56659302  0.18580851  0.48998609    -0.04200
C608        C  0.56986131  0.21585125  0.96064099    -0.01300
C609        C  0.59581646  0.24726632  0.96234336     0.03700
C610        C  0.61691963  0.25028942  0.49536586    -0.04200
C611        C  0.61376499  0.22852126  0.52812378    -0.01300
C612        C  0.59009745  0.19602952  0.52376484     0.03700
C613        C  0.54563347  0.20763237  0.92717738     0.38300
C614        C  0.63399900  0.23949352  0.56712999     0.38300
C615        C  0.59073271  0.17332886  0.55342020     0.39100
C616        C  0.60274797  0.26799817  0.92455683     0.36800
N617        N  0.59128189  0.15523905  0.57707167    -0.38100
N618        N  0.60880138  0.28424364  0.89394348    -0.38100
N619        N  0.64955516  0.24769147  0.59889463    -0.37500
N620        N  0.52627591  0.20128983  0.90064294    -0.37500
C621        C  0.61384183  0.41016810  0.00973872    -0.04200
C622        C  0.63320062  0.40482615  0.53437244    -0.01300
C623        C  0.64369473  0.38370097  0.53622383     0.03700
C624        C  0.63018466  0.35684292  0.50795500    -0.04200
C625        C  0.60755613  0.36004452  0.98745410    -0.01300
C626        C  0.59687888  0.38096898  0.98696628     0.03700
C627        C  0.65078996  0.43476058  0.55802348     0.38300
C628        C  0.59056953  0.33178568  0.96025815     0.38300
C629        C  0.56753858  0.37171252  0.96413767     0.36800
C630        C  0.66766250  0.38915386  0.56873137     0.36800
N631        N  0.54415963  0.36432889  0.94608362    -0.38100
N632        N  0.68664890  0.39341810  0.59481962    -0.38100
N633        N  0.57562262  0.30937087  0.93866221    -0.37500
N634        N  0.66490832  0.45872187  0.57665049    -0.37500
C635        C  0.89768350  0.44057445  0.92511471    -0.04200
C636        C  0.90138051  0.46688264  0.90176965    -0.01300
C637        C  0.92103354  0.47890980  0.86492521     0.03700
C638        C  0.93911762  0.46611086  0.85276259    -0.04200
C639        C  0.93510440  0.43941886  0.87653525    -0.01300
C640        C  0.91428240  0.42667715  0.91219617     0.03700
C641        C  0.88662698  0.48308799  0.91754833     0.38300
C642        C  0.95291576  0.42531791  0.86583377     0.38300
C643        C  0.91061757  0.39976867  0.93675084     0.36800
C644        C  0.92207325  0.50434782  0.83966541     0.36800
N645        N  0.90773373  0.38257366  0.46400555    -0.38100
N646        N  0.92271048  0.52456683  0.81963004    -0.38100
N647        N  0.96700412  0.41390067  0.85753309    -0.37500
N648        N  0.87558027  0.49663230  0.93040286    -0.37500
C649        C  0.89306102  0.44996106  0.58959520    -0.04200
C650        C  0.90798846  0.48220007  0.60138940    -0.01300
C651        C  0.92929782  0.49443899  0.63778515     0.03700
C652        C  0.93524143  0.47414414  0.66358328    -0.04200
C653        C  0.91731874  0.44109862  0.65430699    -0.01300
C654        C  0.89744132  0.42938609  0.61652512     0.03700
C655        C  0.90192040  0.50293871  0.57515387     0.38300
C656        C  0.91858014  0.41871208  0.68394237     0.38300
C657        C  0.88317054  0.39643996  0.60376683     0.36800
C658        C  0.94553767  0.52810151  0.64734372     0.36800
N659        N  0.87241599  0.37026987  0.59351927    -0.38100
N660        N  0.95832614  0.55496756  0.65485480    -0.38100
N661        N  0.91930708  0.40078714  0.70773370    -0.37500
N662        N  0.90902127  0.51598517  0.03919301    -0.37500
C663        C  0.72553939  0.34991742  0.49681540    -0.04200
C664        C  0.74233721  0.34406408  0.52937278    -0.01300
C665        C  0.77539928  0.36113002  0.52936266     0.03700
C666        C  0.79245381  0.38643465  0.49929730    -0.04200
C667        C  0.77720916  0.39654548  0.97066569    -0.01300
C668        C  0.74415488  0.38001368  0.96932207     0.03700
C669        C  0.72587963  0.32171424  0.56472191     0.38300
C670        C  0.79479702  0.42494056  0.94419258     0.38300
C671        C  0.72873872  0.38956287  0.93757736     0.36800
C672        C  0.79154880  0.35189463  0.56011567     0.36800
N673        N  0.71654287  0.39732479  0.91235931    -0.38100
N674        N  0.80381996  0.34399895  0.58494397    -0.38100
N675        N  0.80814582  0.44741072  0.92252467    -0.37500
N676        N  0.71330972  0.30431149  0.59356159    -0.37500
C677        C  0.56718929  0.45647313  0.59109355    -0.04200
C678        C  0.54410718  0.43351760  0.61909142    -0.01300
C679        C  0.53273806  0.44288591  0.65405915     0.03700
C680        C  0.54369760  0.47544322  0.66060708    -0.04200
C681        C  0.56874232  0.49848242  0.63440122    -0.01300
C682        C  0.58063097  0.48892915  0.60038723     0.03700
C683        C  0.53121845  0.40006765  0.61107476     0.38300
C684        C  0.58204103  0.53213671  0.64091792     0.38300
C685        C  0.60686175  0.51257970  0.57464425     0.36800
C686        C  0.50991654  0.41865019  0.68331108     0.36800
N687        N  0.62787211  0.53135079  0.55424708    -0.38100
N688        N  0.49175190  0.39922008  0.70654685    -0.38100
N689        N  0.59300259  0.55906801  0.64582675    -0.37500
N690        N  0.52110333  0.37342026  0.60481306    -0.37500
C691        C  0.54064945  0.47456520  0.84908731    -0.04200
C692        C  0.52102969  0.45226616  0.88126272    -0.01300
C693        C  0.53422032  0.44599228  0.91837197     0.03700
C694        C  0.56706879  0.46200143  0.92403803    -0.04200
C695        C  0.58662712  0.48236963  0.89052534    -0.01300
C696        C  0.57351342  0.48861572  0.85311935     0.03700
C697        C  0.48720849  0.43639986  0.87746893     0.38300
C698        C  0.62029260  0.49739095  0.89495026     0.38300
C699        C  0.59395046  0.50904544  0.81843846     0.36800
C700        C  0.51386850  0.42293755  0.95099833     0.36800
N701        N  0.61023747  0.52527367  0.79072514    -0.38100
N702        N  0.49773078  0.40462687  0.97708384    -0.38100
N703        N  0.64714076  0.50922054  0.89835432    -0.37500
N704        N  0.46023005  0.42356073  0.87451120    -0.37500
C705        C  0.43895163  0.54131809  0.91715580    -0.04200
C706        C  0.42304582  0.50990287  0.90150294    -0.01300
C707        C  0.43506356  0.50157464  0.86616886     0.03700
C708        C  0.46306366  0.52503177  0.84508831    -0.04200
C709        C  0.47756709  0.55718513  0.85921242    -0.01300
C710        C  0.46579316  0.56503377  0.89542752     0.03700
C711        C  0.39425813  0.48597693  0.92240672     0.38300
C712        C  0.50483963  0.58266931  0.83725139     0.38300
C713        C  0.48213097  0.59747283  0.91162816     0.36800
C714        C  0.41863778  0.46847259  0.85311091     0.36800
N715        N  0.49513907  0.62329057  0.92462570    -0.38100
N716        N  0.40535785  0.44198259  0.84310220    -0.38100
N717        N  0.52660299  0.60316733  0.82000297    -0.37500
N718        N  0.37128477  0.46705611  0.93911089    -0.37500
C719        C  0.46439111  0.52606563  0.65450332    -0.04200
C720        C  0.43135270  0.51103850  0.65060983    -0.01300
C721        C  0.41767070  0.51671253  0.61335848     0.03700
C722        C  0.43681762  0.53810569  0.58047085    -0.04200
C723        C  0.46969795  0.55518079  0.58615207    -0.01300
C724        C  0.48347135  0.54884577  0.62245327     0.03700
C725        C  0.41125017  0.49006733  0.68515413     0.38300
C726        C  0.48945449  0.57930956  0.55422950     0.38300
C727        C  0.51731644  0.56494492  0.62520022     0.36800
C728        C  0.38387723  0.49986324  0.60820128     0.36800
N729        N  0.54433256  0.57796386  0.62700300    -0.38100
N730        N  0.35691982  0.48643850  0.60405425    -0.38100
N731        N  0.50506654  0.59853560  0.52874544    -0.37500
N732        N  0.39520977  0.47342437  0.71275837    -0.37500
loop_ 
_geom_bond_atom_site_label_1 
_geom_bond_atom_site_label_2 
_geom_bond_distance 
_geom_bond_site_symmetry_2 
_ccdc_geom_bond_type 
O1            V9   1.899       .  S
O1           C11   1.265       .  A
O2            V9   1.896       .  S
O2           C12   1.265       .  A
O3            V9   1.900       .  S
O3           C13   1.265       .  A
O4            V9   1.897       .  S
O4           C14   1.263       .  A
O5           V10   1.900       .  S
O5           C14   1.265       .  A
O6           V10   1.898       .  S
O6           C13   1.264       .  A
O7           V10   1.891       .  S
O7           C12   1.262       .  A
O8           V10   1.889       .  S
O8           C11   1.263       .  A
V9           V10   2.082       .  T
C11         C342   1.497       .  S
C12         C314   1.500       .  S
C13         C325   1.493       .  S
C14         C353   1.487       .  S
C15         C300   1.501   1_554  S
C15          C16   1.414       .  A
C15         C386   1.408   1_554  A
C16          C17   1.407       .  A
C16          H21   1.084       .  S
C17         C283   1.491       .  S
C17          C18   1.399       .  A
C18         C385   1.396   1_554  A
C18          H22   1.085       .  S
C19         C269   1.484       .  S
C19          C20   1.403       .  A
C19         C384   1.396       .  A
C20         C381   1.411       .  A
C20          H23   1.082       .  S
C24         C255   1.498       .  S
C24          C29   1.409       .  A
C24         C391   1.409       .  A
C25          C26   1.397       .  A
C25         C390   1.401       .  A
C25          H30   1.083       .  S
C26         C311   1.479       .  S
C26         C393   1.397       .  A
C27          C28   1.397       .  A
C27         C392   1.398       .  A
C27          H31   1.085       .  S
C28         C328   1.484       .  S
C28          C29   1.401       .  A
C29          H32   1.084       .  S
C33         C258   1.506       .  S
C33          C34   1.409       .  A
C33          C38   1.404       .  A
C34          C35   1.409       .  A
C34          H39   1.081       .  S
C35         C297   1.504   1_554  S
C35          C36   1.408   1_554  A
C36          C37   1.402   1_556  A
C36          H40   1.083       .  S
C37         C244   1.486   1_554  S
C37          C38   1.401       .  A
C38          H41   1.083       .  S
C42         C241   1.506       .  S
C42          C43   1.411   1_556  A
C42         C413   1.404       .  A
C43          C44   1.415       .  A
C43          H48   1.075       .  S
C44         C227   1.519       .  S
C44          C45   1.405   1_554  A
C45         C412   1.397       .  A
C45          H49   1.080       .  S
C46         C213   1.478       .  S
C46          C47   1.397       .  A
C46         C411   1.396       .  A
C47         C408   1.402       .  A
C47          H50   1.084       .  S
O51          V59   1.909   1_545  S
O51          C61   1.266       .  A
O52          V59   1.902       .  S
O52          C62   1.266       .  A
O53          V59   1.879       .  S
O53          C63   1.260       .  A
O54          V59   1.885   1_545  S
O54          C64   1.259       .  A
O55          V60   1.913       .  S
O55          C64   1.268       .  A
O56          V60   1.916   1_565  S
O56          C63   1.268       .  A
O57          V60   1.892   1_565  S
O57          C62   1.260       .  A
O58          V60   1.880       .  S
O58          C61   1.260       .  A
V59          V60   2.088   1_565  T
C61         C216   1.475       .  S
C62         C185   1.472       .  S
C63         C199   1.491       .  S
C64         C230   1.479       .  S
O65          V73   1.903   1_655  S
O65          C75   1.266       .  A
O66          V73   1.901       .  S
O66          C76   1.266       .  A
O67          V73   1.903       .  S
O67          C77   1.265       .  A
O68          V73   1.899   1_655  S
O68          C78   1.265       .  A
O69          V74   1.903   1_655  S
O69          C78   1.265       .  A
O70          V74   1.893       .  S
O70          C77   1.264       .  A
O71          V74   1.900       .  S
O71          C76   1.264       .  A
O72          V74   1.894   1_655  S
O72          C75   1.264       .  A
V73          V74   2.079       .  T
C75         C272   1.503       .  S
C76         C174   1.507       .  S
C77         C157   1.508       .  S
C78         C286   1.499       .  S
C79         C143   1.499       .  S
C79          C80   1.411       .  A
C79         C450   1.408   1_554  A
C80          C81   1.405       .  A
C80          H85   1.083       .  S
C81         C356   1.492       .  S
C81          C82   1.399   1_554  A
C82         C449   1.396       .  A
C82          H86   1.085       .  S
C83         C339   1.483       .  S
C83          C84   1.401       .  A
C83         C448   1.397       .  A
C84         C445   1.406       .  A
C84          H87   1.083       .  S
C88         C146   1.505       .  S
C88          C93   1.405   1_554  A
C88         C455   1.407       .  A
C89          C90   1.405       .  A
C89         C454   1.403       .  A
C89          H94   1.083       .  S
C90         C132   1.497       .  S
C90          C91   1.407       .  A
C91         C458   1.406       .  A
C91          H95   1.083       .  S
C92         C115   1.489   1_554  S
C92          C93   1.404   1_554  A
C92         C457   1.404       .  A
C93          H96   1.084       .  S
C97         C129   1.506       .  S
C97         C102   1.411       .  A
C97         C464   1.413       .  A
C98          C99   1.404       .  A
C98         C463   1.411       .  A
C98         H103   1.082       .  S
C99         C171   1.484       .  S
C99         C466   1.397       .  A
C100        C101   1.395       .  A
C100        C465   1.397       .  A
C100        H104   1.085       .  S
C101        C160   1.482       .  S
C101        C102   1.400       .  A
C102        H105   1.084       .  S
C106        C118   1.507       .  S
C106        C111   1.413   1_556  A
C106        C473   1.409       .  A
C107        C108   1.400       .  A
C107        C472   1.405       .  A
C107        H112   1.082       .  S
C108        C202   1.484       .  S
C108        C475   1.400       .  A
C109        C110   1.403   1_556  A
C109        C474   1.397       .  A
C109        H113   1.082       .  S
C110        C188   1.504       .  S
C110        C111   1.412       .  A
C111        H114   1.084       .  S
C115        C120   1.407   1_556  A
C115        C482   1.409       .  A
C116        C117   1.414       .  A
C116        C481   1.412       .  A
C116        C121   1.448       .  S
C117        C484   1.420       .  A
C117        C124   1.450       .  S
C118        C119   1.417   1_556  A
C118        C483   1.423       .  A
C119        C120   1.407       .  A
C119        C122   1.446       .  S
C120        C123   1.449       .  S
C121        N128   1.157       .  T
C122        N127   1.156       .  T
C123        N125   1.157       .  T
C124        N126   1.157       .  T
C129        C134   1.420       .  A
C129        C496   1.419       .  A
C130        C131   1.412       .  A
C130        C495   1.417       .  A
C130        C135   1.450       .  S
C131        C498   1.416       .  A
C131        C138   1.452       .  S
C132        C133   1.413       .  A
C132        C497   1.414       .  A
C133        C134   1.412       .  A
C133        C136   1.449       .  S
C134        C137   1.452       .  S
C135        N142   1.157       .  T
C136        N141   1.156       .  T
C137        N139   1.157       .  T
C138        N140   1.157       .  T
C143        C144   1.414       .  A
C143        C514   1.416   1_554  A
C144        C145   1.411       .  A
C144        C149   1.453       .  S
C145        C146   1.419       .  A
C145        C152   1.448       .  S
C146        C513   1.418   1_554  A
C147        C148   1.413       .  A
C147        C512   1.416       .  A
C147        C150   1.451       .  S
C148        C509   1.417       .  A
C148        C151   1.451       .  S
C149        N156   1.158       .  T
C150        N155   1.157       .  T
C151        N153   1.157       .  T
C152        N154   1.156       .  T
C157        C158   1.426       .  A
C157        C162   1.427       .  A
C158        C159   1.410       .  A
C158        C163   1.452       .  S
C159        C160   1.406       .  A
C159        C166   1.453       .  S
C160        C161   1.406       .  A
C161        C162   1.413       .  A
C161        C164   1.452       .  S
C162        C165   1.451       .  S
C163        N170   1.158       .  T
C164        N169   1.157       .  T
C165        N167   1.158       .  T
C166        N168   1.157       .  T
C171        C172   1.407       .  A
C171        C176   1.407       .  A
C172        C173   1.411       .  A
C172        C177   1.452       .  S
C173        C174   1.424       .  A
C173        C180   1.452       .  S
C174        C175   1.426       .  A
C175        C176   1.413       .  A
C175        C178   1.451       .  S
C176        C179   1.452       .  S
C177        N184   1.157       .  T
C178        N183   1.157       .  T
C179        N181   1.157       .  T
C180        N182   1.158       .  T
C185        C186   1.403       .  A
C185        C190   1.405       .  A
C186        C187   1.406       .  A
C186        C191   1.451   1_565  S
C187        C188   1.426       .  A
C187        C194   1.451       .  S
C188        C189   1.419       .  A
C189        C190   1.411       .  A
C189        C192   1.446       .  S
C190        C193   1.451       .  S
C191        N198   1.157       .  T
C192        N197   1.156       .  T
C193        N195   1.157       .  T
C194        N562   1.157   1_554  T
N196        C560   1.158       .  T
C199        C200   1.417       .  A
C199        C204   1.418       .  A
C200        C201   1.418       .  A
C200        C205   1.449       .  S
C201        C202   1.409       .  A
C201        C208   1.448       .  S
C202        C203   1.412       .  A
C203        C204   1.403       .  A
C203        C206   1.455       .  S
C204        C207   1.455       .  S
C205        N212   1.157       .  T
C206        N211   1.157       .  T
C207        N209   1.158       .  T
C208        N210   1.157       .  T
C213        C214   1.410       .  A
C213        C218   1.412       .  A
C214        C215   1.414       .  A
C214        C219   1.449       .  S
C215        C216   1.412       .  A
C215        C222   1.449       .  S
C216        C217   1.412       .  A
C217        C218   1.402       .  A
C217        C220   1.453       .  S
C218        C221   1.454       .  S
C219        N226   1.157       .  T
C220        N225   1.157       .  T
C221        N223   1.157       .  T
C222        N224   1.157       .  T
C227        C228   1.434       .  A
C227        C232   1.425       .  A
C228        C229   1.407       .  A
C228        C233   1.451       .  S
C229        C230   1.404       .  A
C229        C236   1.455       .  S
C230        C231   1.406       .  A
C231        C232   1.415       .  A
C231        C234   1.450       .  S
C232        C235   1.450       .  S
C233        N606   1.158   1_554  T
C234        N239   1.157       .  T
C235        N237   1.157       .  T
C236        N238   1.158   1_545  T
N240        C599   1.158       .  T
C241        C246   1.423   1_556  A
C241        C608   1.422       .  A
C242        C243   1.407       .  A
C242        C607   1.422       .  A
C242        C247   1.452       .  S
C243        C610   1.408       .  A
C243        C250   1.451       .  S
C244        C245   1.408   1_556  A
C244        C609   1.407       .  A
C245        C246   1.412       .  A
C245        C248   1.449       .  S
C246        C249   1.451       .  S
C247        N254   1.158       .  T
C248        N253   1.157       .  T
C249        N251   1.157       .  T
C250        N252   1.157       .  T
C255        C260   1.415       .  A
C255        C622   1.414       .  A
C256        C257   1.412       .  A
C256        C621   1.414       .  A
C256        C261   1.452       .  S
C257        C258   1.420       .  A
C257        C264   1.452       .  S
C258        C625   1.423   1_554  A
C259        C260   1.412       .  A
C259        C624   1.421       .  A
C259        C262   1.449       .  S
C260        C263   1.454       .  S
C261        N268   1.157       .  T
C262        N267   1.157       .  T
C263        N265   1.158       .  T
C264        N266   1.157       .  T
C269        C270   1.408       .  A
C269        C274   1.407       .  A
C270        C271   1.411       .  A
C270        C275   1.452       .  S
C271        C272   1.424       .  A
C271        C278   1.452       .  S
C272        C273   1.424       .  A
C273        C274   1.413       .  A
C273        C276   1.451       .  S
C274        C277   1.452       .  S
C275        N282   1.157       .  T
C276        N281   1.158       .  T
C277        N645   1.157       .  T
C278        N280   1.158       .  T
N279        C643   1.157       .  T
C283        C284   1.412       .  A
C283        C288   1.410       .  A
C284        C285   1.412       .  A
C284        C289   1.452       .  S
C285        C286   1.419       .  A
C285        C292   1.451       .  S
C286        C287   1.419       .  A
C287        C288   1.413       .  A
C287        C290   1.452       .  S
C288        C291   1.449       .  S
C289        N662   1.157       .  T
C290        N295   1.157       .  T
C291        N293   1.157       .  T
C292        N294   1.157       .  T
N296        C655   1.157       .  T
C297        C298   1.417   1_556  A
C297        C668   1.417       .  A
C298        C299   1.412       .  A
C298        C303   1.450       .  S
C299        C300   1.413   1_554  A
C299        C306   1.450       .  S
C300        C667   1.417       .  A
C301        C302   1.414       .  A
C301        C666   1.421       .  A
C301        C304   1.450       .  S
C302        C663   1.414       .  A
C302        C305   1.452       .  S
C303        N310   1.156       .  T
C304        N309   1.157       .  T
C305        N307   1.157       .  T
C306        N308   1.156       .  T
C311        C312   1.408       .  A
C311        C316   1.406       .  A
C312        C313   1.408       .  A
C312        C317   1.453       .  S
C313        C314   1.423       .  A
C313        C320   1.452       .  S
C314        C315   1.425       .  A
C315        C316   1.409       .  A
C315        C318   1.452       .  S
C316        C319   1.453       .  S
C317        N324   1.157       .  T
C318        N323   1.158       .  T
C319        N321   1.157       .  T
C320        N322   1.158       .  T
C325        C326   1.417       .  A
C325        C330   1.419       .  A
C326        C327   1.409       .  A
C326        C331   1.451       .  S
C327        C328   1.411       .  A
C327        C334   1.453       .  S
C328        C329   1.408       .  A
C329        C330   1.412       .  A
C329        C332   1.451       .  S
C330        C333   1.451       .  S
C331        N338   1.157       .  T
C332        N337   1.157       .  T
C333        N335   1.157       .  T
C334        N336   1.157       .  T
C339        C340   1.409       .  A
C339        C344   1.409       .  A
C340        C341   1.409       .  A
C340        C345   1.453       .  S
C341        C342   1.421       .  A
C341        C348   1.451       .  S
C342        C343   1.422       .  A
C343        C344   1.408       .  A
C343        C346   1.452       .  S
C344        C347   1.453       .  S
C345        N352   1.157       .  T
C346        N351   1.158       .  T
C347        N349   1.157       .  T
C348        N350   1.157       .  T
C353        C354   1.416       .  A
C353        C358   1.413       .  A
C354        C355   1.414       .  A
C354        C359   1.451       .  S
C355        C356   1.413       .  A
C355        C362   1.450       .  S
C356        C357   1.416       .  A
C357        C358   1.407       .  A
C357        C360   1.453       .  S
C358        C361   1.451       .  S
C359        N366   1.157       .  T
C360        N365   1.157       .  T
C361        N363   1.157       .  T
C362        N364   1.157       .  T
O367        V375   1.900       .  S
O367        C377   1.265       .  A
O368        V375   1.896       .  S
O368        C378   1.265       .  A
O369        V375   1.896       .  S
O369        C379   1.264       .  A
O370        V375   1.894       .  S
O370        C380   1.263       .  A
O371        V376   1.902       .  S
O371        C380   1.266       .  A
O372        V376   1.898       .  S
O372        C379   1.264       .  A
O373        V376   1.900       .  S
O373        C378   1.265       .  A
O374        V376   1.896       .  S
O374        C377   1.264       .  A
V375        V376   2.081       .  T
C377        C708   1.508       .  S
C378        C680   1.502       .  S
C379        C691   1.492       .  S
C380        C719   1.494       .  S
C381        C666   1.508       .  S
C381        C382   1.414       .  A
C382        C383   1.406       .  A
C382        H387   1.083       .  S
C383        C649   1.488       .  S
C383        C384   1.397       .  A
C384        H388   1.085       .  S
C385        C635   1.483       .  S
C385        C386   1.402       .  A
C386        H389   1.083       .  S
C390        C621   1.492       .  S
C390        C395   1.409   1_554  A
C391        C392   1.403       .  A
C391        H396   1.082       .  S
C392        C677   1.487       .  S
C393        C394   1.401   1_554  A
C393        H397   1.085       .  S
C394        C694   1.487       .  S
C394        C395   1.403       .  A
C395        H398   1.084       .  S
C399        C624   1.505       .  S
C399        C400   1.407       .  A
C399        C404   1.404       .  A
C400        C401   1.406       .  A
C400        H405   1.083       .  S
C401        C663   1.500       .  S
C401        C402   1.409       .  A
C402        C403   1.405       .  A
C402        H406   1.083       .  S
C403        C610   1.490       .  S
C403        C404   1.405       .  A
C404        H407   1.083       .  S
C408        C607   1.507       .  S
C408        C409   1.411       .  A
C409        C410   1.416       .  A
C409        H414   1.075       .  S
C410        C593   1.517       .  S
C410        C411   1.406       .  A
C411        H415   1.080       .  S
C412        C579   1.481       .  S
C412        C413   1.398       .  A
C413        H416   1.084       .  S
O417        V425   1.910   1_545  S
O417        C427   1.266       .  A
O418        V425   1.906       .  S
O418        C428   1.266       .  A
O419        V425   1.880       .  S
O419        C429   1.260       .  A
O420        V425   1.884   1_545  S
O420        C430   1.259       .  A
O421        V426   1.910       .  S
O421        C430   1.268       .  A
O422        V426   1.917   1_565  S
O422        C429   1.268       .  A
O423        V426   1.894   1_565  S
O423        C428   1.260       .  A
O424        V426   1.883       .  S
O424        C427   1.260       .  A
V425        V426   2.088   1_565  T
C427        C582   1.478       .  S
C428        C551   1.477       .  S
C429        C565   1.491       .  S
C430        C596   1.476       .  S
O431        V439   1.898   1_655  S
O431        C441   1.264       .  A
O432        V439   1.893       .  S
O432        C442   1.264       .  A
O433        V439   1.904       .  S
O433        C443   1.266       .  A
O434        V439   1.898   1_655  S
O434        C444   1.265       .  A
O435        V440   1.904   1_655  S
O435        C444   1.265       .  A
O436        V440   1.895       .  S
O436        C443   1.264       .  A
O437        V440   1.907       .  S
O437        C442   1.266       .  A
O438        V440   1.898   1_655  S
O438        C441   1.265       .  A
V439        V440   2.079       .  T
C441        C638   1.503       .  S
C442        C540   1.503       .  S
C443        C523   1.506       .  S
C444        C652   1.504       .  S
C445        C509   1.498       .  S
C445        C446   1.411       .  A
C446        C447   1.401       .  A
C446        H451   1.084       .  S
C447        C722   1.485       .  S
C447        C448   1.397       .  A
C448        H452   1.085       .  S
C449        C705   1.484       .  S
C449        C450   1.401       .  A
C450        H453   1.083       .  S
C454        C512   1.498       .  S
C454        C459   1.405       .  A
C455        C456   1.410       .  A
C455        H460   1.082       .  S
C456        C498   1.504       .  S
C456        C457   1.408       .  A
C457        H461   1.083       .  S
C458        C481   1.491       .  S
C458        C459   1.405       .  A
C459        H462   1.084       .  S
C463        C495   1.503       .  S
C463        C468   1.411   1_554  A
C464        C465   1.406       .  A
C464        H469   1.082       .  S
C465        C537   1.486       .  S
C466        C467   1.396   1_554  A
C466        H470   1.085       .  S
C467        C526   1.484       .  S
C467        C468   1.402       .  A
C468        H471   1.084       .  S
C472        C484   1.499       .  S
C472        C477   1.412       .  A
C473        C474   1.400       .  A
C473        H478   1.081       .  S
C474        C568   1.485       .  S
C475        C476   1.408       .  A
C475        H479   1.082       .  S
C476        C554   1.511       .  S
C476        C477   1.411       .  A
C477        H480   1.083       .  S
C481        C486   1.409       .  A
C482        C483   1.413       .  A
C482        C487   1.449       .  S
C483        C490   1.450       .  S
C484        C485   1.412       .  A
C485        C486   1.405       .  A
C485        C488   1.448       .  S
C486        C489   1.447       .  S
C487        N494   1.157       .  T
C488        N493   1.157       .  T
C489        N491   1.156       .  T
C490        N492   1.157       .  T
C495        C500   1.416   1_554  A
C496        C497   1.413       .  A
C496        C501   1.449       .  S
C497        C504   1.453       .  S
C498        C499   1.418   1_554  A
C499        C500   1.413       .  A
C499        C502   1.449       .  S
C500        C503   1.452       .  S
C501        N508   1.157       .  T
C502        N507   1.156       .  T
C503        N505   1.157       .  T
C504        N506   1.157       .  T
C509        C510   1.415       .  A
C510        C511   1.408       .  A
C510        C515   1.454       .  S
C511        C512   1.415       .  A
C511        C518   1.447       .  S
C513        C514   1.413       .  A
C513        C516   1.451       .  S
C514        C517   1.452       .  S
C515        N522   1.158       .  T
C516        N521   1.157       .  T
C517        N519   1.157       .  T
C518        N520   1.155       .  T
C523        C524   1.425       .  A
C523        C528   1.425       .  A
C524        C525   1.411       .  A
C524        C529   1.452       .  S
C525        C526   1.407       .  A
C525        C532   1.452       .  S
C526        C527   1.407       .  A
C527        C528   1.413       .  A
C527        C530   1.452       .  S
C528        C531   1.451       .  S
C529        N536   1.158       .  T
C530        N535   1.157       .  T
C531        N533   1.158       .  T
C532        N534   1.157       .  T
C537        C538   1.408       .  A
C537        C542   1.409       .  A
C538        C539   1.409       .  A
C538        C543   1.452       .  S
C539        C540   1.422       .  A
C539        C546   1.452       .  S
C540        C541   1.422       .  A
C541        C542   1.415       .  A
C541        C544   1.450       .  S
C542        C545   1.451       .  S
C543        N550   1.157       .  T
C544        N549   1.158       .  T
C545        N547   1.157       .  T
C546        N548   1.158       .  T
C551        C552   1.404       .  A
C551        C556   1.405       .  A
C552        C553   1.407       .  A
C552        C557   1.451       .  S
C553        C554   1.427       .  A
C553        C560   1.452       .  S
C554        C555   1.424       .  A
C555        C556   1.414       .  A
C555        C558   1.446       .  S
C556        C559   1.452       .  S
C557        N564   1.157   1_565  T
C558        N563   1.156       .  T
C559        N561   1.157       .  T
C565        C566   1.417       .  A
C565        C570   1.418       .  A
C566        C567   1.418       .  A
C566        C571   1.449       .  S
C567        C568   1.409       .  A
C567        C574   1.448       .  S
C568        C569   1.413       .  A
C569        C570   1.403       .  A
C569        C572   1.455       .  S
C570        C573   1.455       .  S
C571        N578   1.157       .  T
C572        N577   1.157       .  T
C573        N575   1.158       .  T
C574        N576   1.157       .  T
C579        C580   1.410       .  A
C579        C584   1.413       .  A
C580        C581   1.414       .  A
C580        C585   1.449       .  S
C581        C582   1.413       .  A
C581        C588   1.450       .  S
C582        C583   1.412       .  A
C583        C584   1.404       .  A
C583        C586   1.453       .  S
C584        C587   1.454       .  S
C585        N592   1.157       .  T
C586        N591   1.157       .  T
C587        N589   1.157       .  T
C588        N590   1.157       .  T
C593        C594   1.434       .  A
C593        C598   1.425       .  A
C594        C595   1.405       .  A
C594        C599   1.451       .  S
C595        C596   1.403       .  A
C595        C602   1.456       .  S
C596        C597   1.405       .  A
C597        C598   1.414       .  A
C597        C600   1.450       .  S
C598        C601   1.450       .  S
C600        N605   1.157       .  T
C601        N603   1.157       .  T
C602        N604   1.158   1_545  T
C607        C612   1.422       .  A
C608        C609   1.407       .  A
C608        C613   1.452       .  S
C609        C616   1.451       .  S
C610        C611   1.409       .  A
C611        C612   1.414       .  A
C611        C614   1.448       .  S
C612        C615   1.451       .  S
C613        N620   1.158       .  T
C614        N619   1.157       .  T
C615        N617   1.158       .  T
C616        N618   1.157       .  T
C621        C626   1.411   1_554  A
C622        C623   1.411       .  A
C622        C627   1.451       .  S
C623        C624   1.418       .  A
C623        C630   1.452       .  S
C625        C626   1.409       .  A
C625        C628   1.449       .  S
C626        C629   1.455       .  S
C627        N634   1.157       .  T
C628        N633   1.156       .  T
C629        N631   1.158       .  T
C630        N632   1.157       .  T
C635        C636   1.408       .  A
C635        C640   1.407       .  A
C636        C637   1.409       .  A
C636        C641   1.452       .  S
C637        C638   1.423       .  A
C637        C644   1.452       .  S
C638        C639   1.425       .  A
C639        C640   1.413       .  A
C639        C642   1.451       .  S
C640        C643   1.452       .  S
C641        N648   1.157       .  T
C642        N647   1.158       .  T
C644        N646   1.158       .  T
C649        C650   1.409       .  A
C649        C654   1.409       .  A
C650        C651   1.414       .  A
C650        C655   1.451       .  S
C651        C652   1.422       .  A
C651        C658   1.451       .  S
C652        C653   1.421       .  A
C653        C654   1.411       .  A
C653        C656   1.452       .  S
C654        C657   1.451       .  S
C656        N661   1.158       .  T
C657        N659   1.157       .  T
C658        N660   1.158       .  T
C663        C664   1.413       .  A
C664        C665   1.413       .  A
C664        C669   1.450       .  S
C665        C666   1.418       .  A
C665        C672   1.450       .  S
C667        C668   1.413       .  A
C667        C670   1.449       .  S
C668        C671   1.453       .  S
C669        N676   1.156       .  T
C670        N675   1.157       .  T
C671        N673   1.157       .  T
C672        N674   1.157       .  T
C677        C678   1.409       .  A
C677        C682   1.410       .  A
C678        C679   1.411       .  A
C678        C683   1.452       .  S
C679        C680   1.423       .  A
C679        C686   1.452       .  S
C680        C681   1.422       .  A
C681        C682   1.411       .  A
C681        C684   1.451       .  S
C682        C685   1.453       .  S
C683        N690   1.157       .  T
C684        N689   1.157       .  T
C685        N687   1.157       .  T
C686        N688   1.157       .  T
C691        C692   1.417       .  A
C691        C696   1.419       .  A
C692        C693   1.408       .  A
C692        C697   1.452       .  S
C693        C694   1.413       .  A
C693        C700   1.453       .  S
C694        C695   1.409       .  A
C695        C696   1.413       .  A
C695        C698   1.450       .  S
C696        C699   1.451       .  S
C697        N704   1.157       .  T
C698        N703   1.157       .  T
C699        N701   1.157       .  T
C700        N702   1.157       .  T
C705        C706   1.407       .  A
C705        C710   1.407       .  A
C706        C707   1.411       .  A
C706        C711   1.453       .  S
C707        C708   1.426       .  A
C707        C714   1.451       .  S
C708        C709   1.427       .  A
C709        C710   1.412       .  A
C709        C712   1.452       .  S
C710        C713   1.453       .  S
C711        N718   1.157       .  T
C712        N717   1.158       .  T
C713        N715   1.157       .  T
C714        N716   1.158       .  T
C719        C720   1.421       .  A
C719        C724   1.417       .  A
C720        C721   1.412       .  A
C720        C725   1.451       .  S
C721        C722   1.408       .  A
C721        C728   1.451       .  S
C722        C723   1.412       .  A
C723        C724   1.408       .  A
C723        C726   1.453       .  S
C724        C727   1.451       .  S
C725        N732   1.157       .  T
C726        N731   1.157       .  T
C727        N729   1.157       .  T
C728        N730   1.157       .  T
