geometry optimzed in LAMMPS
_audit_creation_date              2020-12-01 
_audit_creation_method            'lammps2cif' 
_symmetry_space_group_name_H-M    'P1' 
_symmetry_Int_Tables_number       1 
_symmetry_cell_setting            triclinic 
loop_ 
_symmetry_equiv_pos_as_xyz 
  x,y,z 
_cell_length_a                    53.80035585 
_cell_length_b                    54.20952980202217 
_cell_length_c                    37.327651062228995 
_cell_angle_alpha                 102.80846772348048 
_cell_angle_beta                  89.56624875283785 
_cell_angle_gamma                 120.99654792250314 
loop_ 
_atom_site_label 
_atom_site_type_symbol 
_atom_site_fract_x 
_atom_site_fract_y 
_atom_site_fract_z 
_atom_site_charge 
N1          N  0.86313332  0.43901056  0.55169745    -0.02300
C2          C  0.89242134  0.45807904  0.55335960     0.00300
C3          C  0.90353198  0.43164471  0.10101518    -0.22600
C4          C  0.87926123  0.42383039  0.11910013    -0.22800
C5          C  0.85546462  0.40855297  0.09202742     0.00200
H6          H  0.92586773  0.44267011  0.11379458     0.13900
H7          H  0.87883657  0.42724887  0.14873618     0.14000
N8          N  0.58931999  0.07415058  0.48055942    -0.02300
C9          C  0.58880545  0.04841382  0.46753497     0.00300
C10         C  0.60166383  0.04920846  0.43518202    -0.22600
C11         C  0.61054936  0.07625385  0.42837367    -0.22800
C12         C  0.60277264  0.09106646  0.45668404     0.00200
H13         H  0.60173495  0.03092946  0.41635187     0.13900
H14         H  0.61945594  0.08331857  0.40388517     0.14000
N15         N  0.49851439  0.35688286  0.54490911    -0.02300
C16         C  0.47683240  0.36292681  0.54855298     0.00300
C17         C  0.47442589  0.37270546  0.06736000    -0.22600
C18         C  0.48825869  0.36492193  0.08898953    -0.22800
C19         C  0.50566052  0.35814349  0.06704790     0.00200
H20         H  0.46022119  0.38080033  0.07661980     0.13900
H21         H  0.48634456  0.36478929  0.11784303     0.14000
Fe22       Fe  0.65983064  0.26553759  0.27754376     1.65800
Fe23       Fe  0.59345701  0.25864560  0.27733530     1.73200
Fe24       Fe  0.65573139  0.32730944  0.29367671     1.54400
O25         O  0.68278066  0.33386544  0.33858165    -0.80500
O26         O  0.58800104  0.28251480  0.24519088    -0.78800
O27         O  0.69426299  0.29991982  0.31712422    -0.83000
O28         O  0.67920394  0.28506720  0.23551297    -0.77900
O29         O  0.62749613  0.33052108  0.33059100    -0.79700
O30         O  0.59093357  0.23039182  0.22789379    -0.82400
C31         C  0.69072360  0.31211690  0.23503826     0.98400
C32         C  0.69860692  0.32301128  0.34080510     1.05800
O33         O  0.63619427  0.28384463  0.28297780    -1.11400
O34         O  0.59460613  0.23175146  0.30899704    -0.73800
O35         O  0.64144561  0.24521036  0.31911485    -0.77300
O36         O  0.68638868  0.33024430  0.25815177    -0.78000
C37         C  0.61504007  0.23132958  0.32545899     0.97300
O38         O  0.63002560  0.22772454  0.23723597    -0.75900
O39         O  0.59057357  0.28424183  0.32544788    -0.81100
C40         C  0.60454119  0.30612418  0.23485519     0.99900
C41         C  0.60404109  0.31194647  0.34106743     1.05800
O42         O  0.63088107  0.32453430  0.24933232    -0.76800
C43         C  0.60594748  0.21866732  0.21861155     1.04100
N44         N  0.08362221  0.49155912  0.40999400    -0.02300
C45         C  0.05387923  0.47691707  0.40627819     0.00300
C46         C  0.04293706  0.47261908  0.37051740    -0.22600
C47         C  0.06636809  0.48474784  0.35141486    -0.22800
C48         C  0.09089877  0.49614243  0.37605161     0.00200
H49         H  0.02030310  0.46289518  0.35990463     0.13900
H50         H  0.06567553  0.48543734  0.32270160     0.14000
N51         N  0.44027496  0.81290317  0.46573961    -0.02300
C52         C  0.46569567  0.83976984  0.47288970     0.00300
C53         C  0.42113072  0.85668096  0.04263726    -0.22600
C54         C  0.40512418  0.83071442  0.05323061    -0.22800
C55         C  0.39443583  0.80805071  0.02115993     0.00200
H56         H  0.43358678  0.87886133  0.06085646     0.13900
H57         H  0.40269629  0.82848184  0.08134454     0.14000
N58         N  0.41428737  0.49125132  0.41502138    -0.02300
C59         C  0.42635487  0.47421086  0.41197704     0.00300
C60         C  0.43495488  0.47032980  0.37722357    -0.22600
C61         C  0.42815759  0.48527282  0.35810592    -0.22800
C62         C  0.41580783  0.49814356  0.38176751     0.00200
H63         H  0.44434477  0.45711118  0.36651947     0.13900
H64         H  0.43082958  0.48559812  0.32944200     0.14000
Fe65       Fe  0.34774429  0.61044828  0.17572882     1.65800
Fe66       Fe  0.28207922  0.54435253  0.15694945     1.73200
Fe67       Fe  0.28411090  0.60944775  0.17350968     1.54400
O68         O  0.31433894  0.64659652  0.21399901    -0.80500
O69         O  0.25794526  0.54064984  0.11117956    -0.78800
O70         O  0.35128825  0.64050496  0.22289639    -0.83000
O71         O  0.35007412  0.63723037  0.14197190    -0.77900
O72         O  0.26221533  0.59033472  0.21441824    -0.79700
O73         O  0.30993525  0.53918634  0.12095520    -0.82400
C74         C  0.33127459  0.64020536  0.12594590     0.98400
C75         C  0.33810097  0.65418904  0.23185589     1.05800
O76         O  0.30484519  0.58808193  0.16875753    -1.11400
O77         O  0.30445771  0.54425443  0.20150912    -0.73800
O78         O  0.34867418  0.58577393  0.20997639    -0.77300
O79         O  0.30504203  0.62909040  0.13300962    -0.78000
C80         C  0.33030112  0.56171626  0.21825101     0.97300
O81         O  0.35093900  0.58346287  0.13011334    -0.75900
O82         O  0.25067960  0.54340102  0.19150657    -0.81100
C83         C  0.24412101  0.55355545  0.10951062     0.99900
C84         C  0.24789797  0.56298885  0.21421656     1.05800
O85         O  0.24974031  0.57690017  0.13360323    -0.76800
C86         C  0.33533807  0.55624152  0.11318043     1.04100
C87         C  0.34079595  0.51981124  0.27983933    -0.13200
C88         C  0.36121957  0.54347414  0.30872334     0.17200
C89         C  0.36993398  0.57279421  0.30871249     0.03500
C90         C  0.35911860  0.57807136  0.27927004    -0.11700
C91         C  0.33957565  0.55453782  0.24955853    -0.02800
C92         C  0.32982537  0.52502822  0.25039333     0.02700
C93         C  0.37635508  0.53719654  0.33493341     0.09600
N94         N  0.38987500  0.59740284  0.33828693     0.65900
H95         H  0.36629012  0.60089546  0.27953441     0.18800
N96         N  0.31056337  0.50035102  0.22040028     0.76400
H97         H  0.33444863  0.49713372  0.27917092     0.10300
C98         C  0.36083954  0.51746206  0.35703693     0.04000
C99         C  0.37437281  0.50594355  0.37399359    -0.04700
C100        C  0.40350280  0.51445571  0.36977004    -0.23100
C101        C  0.41952688  0.53602160  0.34991586     0.13300
C102        C  0.40581084  0.54695609  0.33253832    -0.12200
N103        N  0.33111263  0.50834837  0.36133748     0.65000
H104        H  0.36176696  0.48946829  0.38918966     0.12800
N105        N  0.44958720  0.54647742  0.34621794     0.61600
H106        H  0.41785901  0.56193449  0.31530872     0.09000
O107        O  0.28378389  0.48468142  0.22354123    -0.39900
O108        O  0.32110541  0.49069934  0.19466886    -0.39000
O109        O  0.41642498  0.61295494  0.33402989    -0.39000
O110        O  0.37994998  0.60748005  0.36442829    -0.36800
O111        O  0.45638706  0.53773417  0.31565066    -0.37700
O112        O  0.46904039  0.56953139  0.36936410    -0.33800
O113        O  0.31084283  0.48195409  0.34661568    -0.35200
O114        O  0.32488694  0.52739243  0.37652658    -0.39500
C115        C  0.37379683  0.48639737  0.97501611    -0.13200
C116        C  0.38306412  0.51646486  0.98913054     0.17200
C117        C  0.40559822  0.53783979  0.97355831     0.03500
C118        C  0.41760588  0.52883957  0.94386578    -0.11700
C119        C  0.40758952  0.49871926  0.92860780    -0.02800
C120        C  0.38397633  0.48542706  0.46766907     0.02700
C121        C  0.37011371  0.52546243  0.02108561     0.09600
N122        N  0.41560523  0.56869894  0.98650166     0.65900
H123        H  0.43450859  0.54561373  0.93167877     0.18800
N124        N  0.37189165  0.45408627  0.45942683     0.76400
H125        H  0.35688559  0.46968942  0.98727301     0.10300
C126        C  0.33988603  0.51474409  0.01947690     0.04000
C127        C  0.32876051  0.52407319  0.05020996    -0.04700
C128        C  0.34726151  0.54435262  0.08269150    -0.23100
C129        C  0.37737694  0.55440043  0.08457339     0.13300
C130        C  0.38838215  0.54485672  0.05402387    -0.12200
N131        N  0.32045874  0.49560706  0.98624187     0.65000
H132        H  0.30559450  0.51629942  0.04808261     0.12800
N133        N  0.39692713  0.57346174  0.11777503     0.61600
H134        H  0.41152877  0.55254053  0.05617670     0.09000
O135        O  0.35076829  0.43717665  0.43397650    -0.39900
O136        O  0.37663399  0.44325081  0.48329586    -0.39000
O137        O  0.43992626  0.58611971  0.00653858    -0.39000
O138        O  0.40361072  0.57931358  0.97149933    -0.36800
O139        O  0.40026077  0.56210910  0.14201207    -0.37700
O140        O  0.41516971  0.60042433  0.11914331    -0.33800
O141        O  0.30236650  0.46861427  0.98488891    -0.35200
O142        O  0.31698898  0.50686789  0.96198645    -0.39500
C143        C  0.37798858  0.75481439  0.39199009    -0.13200
C144        C  0.39336801  0.75092681  0.36321559     0.17200
C145        C  0.42379965  0.77039813  0.36667623     0.03500
C146        C  0.43862399  0.79233176  0.39974142    -0.11700
C147        C  0.42354077  0.79549613  0.42966764    -0.02800
C148        C  0.39260900  0.77708123  0.42490725     0.02700
C149        C  0.37752341  0.72589093  0.33008080     0.09600
N150        N  0.43999532  0.76710178  0.33743755     0.65900
H151        H  0.46230245  0.80578410  0.40293127     0.18800
N152        N  0.37551011  0.78091831  0.45254479     0.76400
H153        H  0.35437354  0.74032982  0.38884773     0.10300
C154        C  0.37022053  0.69701030  0.33045190     0.04000
C155        C  0.35714962  0.67404333  0.29811953    -0.04700
C156        C  0.35058148  0.67910874  0.26530190    -0.23100
C157        C  0.35731648  0.70791301  0.26499443     0.13300
C158        C  0.37089771  0.73109760  0.29735115    -0.12200
N159        N  0.37687937  0.69087401  0.36312899     0.65000
H160        H  0.35209136  0.65194545  0.29863870     0.12800
N161        N  0.35242745  0.71442567  0.23163911     0.61600
H162        H  0.37680563  0.75343697  0.29678468     0.09000
O163        O  0.35679201  0.75862792  0.46335616    -0.39900
O164        O  0.37238475  0.80283849  0.45666044    -0.39000
O165        O  0.44536894  0.78194342  0.31366012    -0.39000
O166        O  0.44544790  0.74665411  0.33251542    -0.36800
O167        O  0.33020701  0.71594213  0.22608331    -0.37700
O168        O  0.37347171  0.72604574  0.21332379    -0.33800
O169        O  0.39723536  0.68584110  0.36460475    -0.35200
O170        O  0.35839498  0.68339046  0.38577964    -0.39500
C171        C  0.37291404  0.70229765  0.07883334    -0.13200
C172        C  0.35029926  0.69683656  0.05378391     0.17200
C173        C  0.32289454  0.67041133  0.04866650     0.03500
C174        C  0.31771355  0.65132780  0.07122015    -0.11700
C175        C  0.33969601  0.65783409  0.09833866    -0.02800
C176        C  0.36804573  0.68279698  0.10067310     0.02700
C177        C  0.35554660  0.72071078  0.03657112     0.09600
N178        N  0.30037291  0.66252479  0.02051832     0.65900
H179        H  0.29606066  0.63148916  0.06797556     0.18800
N180        N  0.39167156  0.68951284  0.12617969     0.76400
H181        H  0.39430874  0.72253390  0.08246500     0.10300
C182        C  0.34319518  0.73807813  0.04894704     0.04000
C183        C  0.35493682  0.76562263  0.04093075    -0.04700
C184        C  0.37922017  0.77651242  0.02157590    -0.23100
C185        C  0.39079270  0.75858655  0.00782105     0.13300
C186        C  0.37822270  0.73046112  0.01453830    -0.12200
N187        N  0.32137495  0.72993690  0.07352660     0.65000
H188        H  0.34630721  0.77957816  0.05214600     0.12800
N189        N  0.42881168  0.74039433  0.46834773     0.61600
H190        H  0.38835445  0.71753445  0.00605907     0.09000
O191        O  0.40051160  0.71065714  0.15489905    -0.42800
O192        O  0.40772560  0.67932619  0.11581990    -0.39000
O193        O  0.29992794  0.64885655  0.98818286    -0.39000
O194        O  0.27756982  0.66211726  0.02968270    -0.36800
O195        O  0.45112949  0.74212239  0.48226564    -0.37700
O196        O  0.41971396  0.72812648  0.43440770    -0.33800
O197        O  0.32919023  0.73655028  0.10781225    -0.35200
O198        O  0.29610818  0.72349155  0.06260434    -0.39500
C199        C  0.19548047  0.51390309  0.01667098    -0.13200
C200        C  0.17190281  0.51745826  0.02512725     0.17200
C201        C  0.17213014  0.53257240  0.06105907     0.03500
C202        C  0.19600127  0.54428028  0.08778761    -0.11700
C203        C  0.21971233  0.54078128  0.07967788    -0.02800
C204        C  0.21931920  0.52530547  0.04362160     0.02700
C205        C  0.14768382  0.50626424  0.99582758     0.09600
N206        N  0.14809404  0.53588265  0.07084775     0.65900
H207        H  0.19575249  0.55590904  0.11545901     0.18800
N208        N  0.24341178  0.52217415  0.03351183     0.76400
H209        H  0.19550878  0.50249437  0.98874753     0.10300
C210        C  0.14850120  0.52444968  0.97371759     0.04000
C211        C  0.12775564  0.53179203  0.45190860    -0.04700
C212        C  0.10248739  0.48321623  0.93723981    -0.23100
C213        C  0.10198533  0.46497815  0.95952259     0.13300
C214        C  0.12421771  0.47683272  0.98898073    -0.12200
N215        N  0.17334553  0.55382103  0.97818616     0.65000
H216        H  0.12950165  0.54682698  0.43578416     0.12800
N217        N  0.08059250  0.43388975  0.95098109     0.61600
H218        H  0.12385864  0.46262048  0.00557339     0.09000
O219        O  0.26354584  0.54125646  0.01953054    -0.39900
O220        O  0.24167609  0.49779981  0.03166944    -0.39000
O221        O  0.12742165  0.51641535  0.08376785    -0.39000
O222        O  0.15042481  0.56066279  0.07391928    -0.36800
O223        O  0.08455502  0.41639177  0.92667868    -0.37700
O224        O  0.06320796  0.42363517  0.97409581    -0.33800
O225        O  0.19582835  0.57790131  0.47089186    -0.35200
O226        O  0.17590476  0.57508124  0.00340569    -0.39500
C227        C  0.17820698  0.53141528  0.25919198    -0.13200
C228        C  0.18935270  0.53944324  0.29654520     0.17200
C229        C  0.21978602  0.55476494  0.30653357     0.03500
C230        C  0.23855071  0.56199042  0.27920495    -0.11700
C231        C  0.22739333  0.55383094  0.24183929    -0.02800
C232        C  0.19692276  0.53845851  0.23182962     0.02700
C233        C  0.16858186  0.53144763  0.32430822     0.09600
N234        N  0.23186890  0.56322706  0.34426897     0.65900
H235        H  0.26205736  0.57410443  0.28721171     0.18800
N236        N  0.18481081  0.53107250  0.19432171     0.76400
H237        H  0.15472345  0.51976754  0.25128247     0.10300
C238        C  0.15720494  0.54936199  0.33882399     0.04000
C239        C  0.13311565  0.53842987  0.35853635    -0.04700
C240        C  0.12044243  0.50999374  0.36460973    -0.23100
C241        C  0.13288001  0.49280596  0.35213212     0.13300
C242        C  0.15686782  0.50360706  0.33209472    -0.12200
N243        N  0.16876137  0.57793221  0.33179886     0.65000
H244        H  0.12330938  0.55155656  0.36748971     0.12800
N245        N  0.11964215  0.46329838  0.35669816     0.61600
H246        H  0.16524026  0.48952845  0.32068255     0.09000
O247        O  0.17856406  0.54811741  0.18405807    -0.39900
O248        O  0.17484031  0.50512410  0.17417671    -0.39000
O249        O  0.23885508  0.54714102  0.35576445    -0.39000
O250        O  0.24071013  0.58915210  0.36368570    -0.36800
O251        O  0.09695175  0.44230412  0.33557622    -0.37700
O252        O  0.12811231  0.45903244  0.38487149    -0.33800
O253        O  0.15555567  0.58078094  0.30672310    -0.35200
O254        O  0.18803429  0.60080665  0.35535116    -0.39500
C255        C  0.43093293  0.38328641  0.50036648    -0.13200
C256        C  0.45235000  0.40868170  0.49013682     0.17200
C257        C  0.48202884  0.41761530  0.49679257     0.03500
C258        C  0.49721516  0.40164069  0.98773476    -0.11700
C259        C  0.46809427  0.37615941  0.52434138    -0.02800
C260        C  0.43840696  0.36690862  0.51696577     0.02700
C261        C  0.44313025  0.42536410  0.47268847     0.09600
N262        N  0.51309691  0.43785828  0.95063099     0.65900
H263        H  0.51991322  0.40830022  0.99349506     0.18800
N264        N  0.41553590  0.34078648  0.52602419     0.76400
H265        H  0.40799460  0.37621888  0.49585011     0.10300
C266        C  0.42199015  0.41079191  0.44106886     0.04000
C267        C  0.41447785  0.42708765  0.42442623    -0.04700
C268        C  0.42781333  0.45795944  0.43809512    -0.23100
C269        C  0.45632878  0.47237228  0.94138722     0.13300
C270        C  0.46518235  0.45639699  0.95702949    -0.12200
N271        N  0.40952793  0.37987331  0.42382557     0.65000
H272        H  0.39948915  0.41577867  0.39880678     0.12800
N273        N  0.47060756  0.50381741  0.95596297     0.61600
H274        H  0.48167492  0.46800073  0.98115362     0.09000
O275        O  0.40508693  0.31591378  0.50285176    -0.39900
O276        O  0.40150310  0.34337257  0.55236422    -0.39000
O277        O  0.53059216  0.46352646  0.97097709    -0.39000
O278        O  0.51967280  0.42959413  0.91963266    -0.36800
O279        O  0.46248893  0.51396426  0.98425830    -0.37700
O280        O  0.49497371  0.52063952  0.94619138    -0.33800
O281        O  0.38294511  0.36169535  0.42540396    -0.35200
O282        O  0.42283318  0.37197022  0.40055362    -0.39500
C283        C  0.52883142  0.31073035  0.09814525    -0.13200
C284        C  0.55372586  0.33254830  0.12353263     0.17200
C285        C  0.56511604  0.36288490  0.12517408     0.03500
C286        C  0.55009644  0.37077996  0.10441176    -0.11700
C287        C  0.52428013  0.34900964  0.08114120    -0.02800
C288        C  0.51400370  0.31880146  0.07715752     0.02700
C289        C  0.56637081  0.32369790  0.14989446     0.09600
N290        N  0.59080128  0.38605780  0.14958135     0.65900
H291        H  0.55790538  0.39414030  0.10779214     0.18800
N292        N  0.48608089  0.28850091  0.56213398     0.76400
H293        H  0.52028330  0.28732514  0.09553973     0.10300
C294        C  0.54886131  0.30537149  0.17269698     0.04000
C295        C  0.56179630  0.29973618  0.19959484    -0.04700
C296        C  0.59212173  0.31219685  0.20493413    -0.23100
C297        C  0.60956433  0.32970886  0.18129061     0.13300
C298        C  0.59651398  0.33492170  0.15388566    -0.12200
N299        N  0.51804501  0.29327046  0.17007181     0.65000
H300        H  0.54788337  0.28606583  0.21727864     0.12800
N301        N  0.64040161  0.34191043  0.18418338     0.61600
H302        H  0.61019736  0.34812887  0.13566857     0.09000
O303        O  0.48466346  0.28248228  0.52728480    -0.39900
O304        O  0.46288577  0.27741974  0.57701303    -0.39000
O305        O  0.61453097  0.39953175  0.13643871    -0.39000
O306        O  0.58838621  0.39727102  0.18184744    -0.36800
O307        O  0.65026198  0.32772070  0.16413392    -0.37700
O308        O  0.65759331  0.36901320  0.20028198    -0.33800
O309        O  0.50081168  0.26598926  0.15483552    -0.35200
O310        O  0.50840816  0.30752576  0.19047356    -0.39500
C311        C  0.51702605  0.33323242  0.45109011    -0.13200
C312        C  0.54752054  0.34703031  0.45847443     0.17200
C313        C  0.56182885  0.36764888  0.49295315     0.03500
C314        C  0.54545701  0.37233012  0.52013584    -0.11700
C315        C  0.51476475  0.35652629  0.51389400    -0.02800
C316        C  0.50064152  0.33785576  0.47834291     0.02700
C317        C  0.56358719  0.33878385  0.43022603     0.09600
N318        N  0.59279770  0.38266680  0.50180541     0.65900
H319        H  0.55662939  0.38750321  0.54653311     0.18800
N320        N  0.46962033  0.32243469  0.46977990     0.76400
H321        H  0.50580820  0.31820960  0.42437998     0.10300
C322        C  0.55617227  0.30901947  0.41754408     0.04000
C323        C  0.56990663  0.30117090  0.38916679    -0.04700
C324        C  0.59141472  0.32239500  0.37257657    -0.23100
C325        C  0.59940956  0.35250296  0.38600910     0.13300
C326        C  0.58549111  0.36031176  0.41451015    -0.12200
N327        N  0.53500907  0.28646106  0.43375554     0.65000
H328        H  0.56355196  0.27800995  0.38011242     0.12800
N329        N  0.62060751  0.37527290  0.37011454     0.61600
H330        H  0.59127814  0.38328893  0.42369331     0.09000
O331        O  0.45779278  0.29938962  0.96259710    -0.39900
O332        O  0.46786443  0.33385183  0.93420218    -0.39000
O333        O  0.60849468  0.40974396  0.50176446    -0.39000
O334        O  0.60340719  0.37121833  0.51762048    -0.36800
O335        O  0.61217305  0.38225612  0.34469271    -0.37700
O336        O  0.64621581  0.39261912  0.38689721    -0.33800
O337        O  0.50977090  0.26807197  0.41633339    -0.35200
O338        O  0.54326007  0.28114780  0.46111396    -0.39500
C339        C  0.44643748  0.91765619  0.97257365    -0.13200
C340        C  0.50384861  0.92592088  0.45850033     0.17200
C341        C  0.51000891  0.90550991  0.43563158     0.03500
C342        C  0.49451149  0.87560202  0.43663549    -0.11700
C343        C  0.47173370  0.86509715  0.45824843    -0.02800
C344        C  0.42664416  0.88860274  0.97524302     0.02700
C345        C  0.52517096  0.95877941  0.46670436     0.09600
N346        N  0.53277826  0.91501598  0.41247224     0.65900
H347        H  0.50164533  0.86100121  0.42246295     0.18800
N348        N  0.39601259  0.87739038  0.97133089     0.76400
H349        H  0.43794375  0.93121087  0.96830471     0.10300
C350        C  0.51677106  0.97972468  0.46749826     0.04000
C351        C  0.53825564  0.00993704  0.47257954    -0.04700
C352        C  0.56806441  0.01975999  0.47597978    -0.23100
C353        C  0.57641664  0.99934338  0.47811081     0.13300
C354        C  0.55501900  0.96951412  0.47477262    -0.12200
N355        N  0.48681539  0.97065463  0.46054209     0.65000
H356        H  0.53149560  0.02538596  0.47040634     0.12800
N357        N  0.60650021  0.00815531  0.48162748     0.61600
H358        H  0.56201985  0.95430836  0.47716902     0.09000
O359        O  0.38422041  0.88254835  0.99899456    -0.39900
O360        O  0.38019869  0.85886343  0.94178724    -0.39000
O361        O  0.55508162  0.91393487  0.41937948    -0.39000
O362        O  0.52736309  0.91718979  0.38088284    -0.36800
O363        O  0.61885767  0.01205535  0.51271336    -0.37700
O364        O  0.61774278  0.00396718  0.45287864    -0.33800
O365        O  0.47426952  0.97621373  0.48705848    -0.35200
O366        O  0.47581797  0.96471719  0.42775608    -0.39500
C367        C  0.62792067  0.16679413  0.44322342    -0.13200
C368        C  0.60122950  0.16258447  0.42992441     0.17200
C369        C  0.57489203  0.13694756  0.43331783     0.03500
C370        C  0.57579079  0.11454445  0.44485114    -0.11700
C371        C  0.60250236  0.11780585  0.45493744    -0.02800
C372        C  0.62860816  0.14483959  0.45635802     0.02700
C373        C  0.60145599  0.18132421  0.40591881     0.09600
N374        N  0.54708093  0.13279592  0.42368923     0.65900
H375        H  0.55550189  0.09376629  0.44384416     0.18800
N376        N  0.65593787  0.14986458  0.47022857     0.76400
H377        H  0.64848195  0.18613156  0.44094148     0.10300
C378        C  0.61953754  0.21272046  0.41584289     0.04000
C379        C  0.62297776  0.22867266  0.38942096    -0.04700
C380        C  0.60822125  0.21408761  0.35336820    -0.23100
C381        C  0.58922348  0.18301764  0.34383772     0.13300
C382        C  0.58634193  0.16698948  0.36984557    -0.12200
N383        N  0.63459738  0.22872787  0.45243768     0.65000
H384        H  0.63760338  0.25276209  0.39703914     0.12800
N385        N  0.57475917  0.16722532  0.30695866     0.61600
H386        H  0.57338935  0.14281122  0.36088490     0.09000
O387        O  0.66944132  0.14049140  0.44930973    -0.39900
O388        O  0.66506743  0.16099696  0.50436555    -0.39000
O389        O  0.53023606  0.11227035  0.39600444    -0.39000
O390        O  0.53674413  0.14429369  0.44750171    -0.36800
O391        O  0.58679540  0.15740806  0.28380256    -0.37700
O392        O  0.54799031  0.15781365  0.30001491    -0.33800
O393        O  0.66203365  0.24113280  0.45770622    -0.35200
O394        O  0.62195483  0.23684224  0.47658701    -0.39500
C395        C  0.60358875  0.12341183  0.07808316    -0.13200
C396        C  0.57888195  0.12507528  0.08625952     0.17200
C397        C  0.55373029  0.10848079  0.05951218     0.03500
C398        C  0.55355347  0.09023709  0.02604422    -0.11700
C399        C  0.58673671  0.08633195  0.51779836    -0.02800
C400        C  0.60974075  0.09778508  0.54619216     0.02700
C401        C  0.58125957  0.14645252  0.12122325     0.09600
N402        N  0.52876272  0.11103317  0.06499427     0.65900
H403        H  0.53444279  0.07816163  0.00538791     0.18800
N404        N  0.63217914  0.09112850  0.54074595     0.76400
H405        H  0.62335042  0.13660070  0.09772839     0.10300
C406        C  0.59012397  0.14545789  0.15618976     0.04000
C407        C  0.59747820  0.16891811  0.18745715    -0.04700
C408        C  0.59529099  0.19324578  0.18528653    -0.23100
C409        C  0.58463636  0.19338949  0.15089981     0.13300
C410        C  0.57832328  0.17044091  0.11926396    -0.12200
N411        N  0.59154792  0.12065742  0.16051900     0.65000
H412        H  0.60506390  0.16811254  0.21387011     0.12800
N413        N  0.58190816  0.21756694  0.14708571     0.61600
H414        H  0.57228982  0.17213719  0.09258412     0.09000
O415        O  0.65173269  0.10365297  0.52090687    -0.39900
O416        O  0.63123569  0.07109433  0.55368846    -0.39000
O417        O  0.52535968  0.12777434  0.04956693    -0.39000
O418        O  0.50721243  0.09156225  0.07680570    -0.36800
O419        O  0.60181794  0.23787516  0.13444284    -0.37700
O420        O  0.55725707  0.21501893  0.14791472    -0.33800
O421        O  0.61618964  0.12359701  0.16564214    -0.35200
O422        O  0.56941477  0.09926084  0.16886628    -0.39500
C423        C  0.98510723  0.43964321  0.44965112    -0.13200
C424        C  0.98771904  0.46395685  0.47616339     0.17200
C425        C  0.01479626  0.46473689  0.98477162     0.03500
C426        C  0.03673627  0.46937473  0.96169152    -0.11700
C427        C  0.03458623  0.47067850  0.43576482    -0.02800
C428        C  0.00836079  0.44270266  0.42986794     0.02700
C429        C  0.96124093  0.46068268  0.49302480     0.09600
N430        N  0.02056807  0.48812219  0.01654977     0.65900
H431        H  0.05628964  0.49131414  0.96625405     0.18800
N432        N  0.00466183  0.41761327  0.40234320     0.76400
H433        H  0.96456769  0.41842771  0.44336579     0.10300
C434        C  0.95021752  0.47884737  0.48938269     0.04000
C435        C  0.92636465  0.47636082  0.50737999    -0.04700
C436        C  0.91182950  0.45477737  0.52709335    -0.23100
C437        C  0.92395035  0.40198055  0.03168849     0.13300
C438        C  0.94826158  0.40749561  0.01283954    -0.12200
N439        N  0.96218377  0.49910570  0.46634049     0.65000
H440        H  0.91951661  0.49187540  0.50658821     0.12800
N441        N  0.91078895  0.37732409  0.04809149     0.61600
H442        H  0.95646905  0.39275185  0.01079874     0.09000
O443        O  0.98658319  0.40674838  0.37357491    -0.39900
O444        O  0.02064764  0.40734135  0.40572438    -0.39000
O445        O  0.02507632  0.48547388  0.04821566    -0.39000
O446        O  0.02868433  0.51362899  0.01256143    -0.36800
O447        O  0.88606517  0.35476153  0.03397190    -0.37700
O448        O  0.92224548  0.37946267  0.07887997    -0.33800
O449        O  0.95683077  0.48885575  0.43162878    -0.35200
O450        O  0.97099785  0.52618847  0.47983456    -0.39500
C451        C  0.76818027  0.34688683  0.40219775    -0.13200
C452        C  0.76808847  0.36697071  0.43303631     0.17200
C453        C  0.74487597  0.37211473  0.43362361     0.03500
C454        C  0.72263862  0.35756225  0.40357003    -0.11700
C455        C  0.72278150  0.33769913  0.37224884    -0.02800
C456        C  0.74604148  0.33240413  0.37193366     0.02700
C457        C  0.79373169  0.38453819  0.46247105     0.09600
N458        N  0.74327260  0.39171628  0.46484967     0.65900
H459        H  0.70499823  0.36188049  0.40493723     0.18800
N460        N  0.74851699  0.31369953  0.34038832     0.76400
H461        H  0.78623997  0.34319308  0.40100335     0.10300
C462        C  0.80005156  0.37152346  0.48707043     0.04000
C463        C  0.82377618  0.38943179  0.51542746    -0.04700
C464        C  0.84203136  0.42012987  0.51910442    -0.23100
C465        C  0.83657863  0.43273370  0.49316531     0.13300
C466        C  0.81258635  0.41497428  0.46539463    -0.12200
N467        N  0.78211979  0.34036425  0.48418946     0.65000
H468        H  0.82761652  0.37944882  0.53534237     0.12800
N469        N  0.85415023  0.46391550  0.49602547     0.61600
H470        H  0.80827048  0.42522450  0.44625145     0.09000
O471        O  0.74159453  0.28778803  0.34117912    -0.39900
O472        O  0.76348351  0.32511541  0.31591016    -0.39000
O473        O  0.75062108  0.41756174  0.46313314    -0.39000
O474        O  0.72804655  0.38100953  0.48952610    -0.36800
O475        O  0.86893062  0.47278635  0.47020630    -0.37700
O476        O  0.84940936  0.48149450  0.51896977    -0.33800
O477        O  0.78998749  0.32315359  0.46719618    -0.35200
O478        O  0.76205023  0.33106902  0.50450826    -0.39500
C479        C  0.72897479  0.31912775  0.14822063    -0.13200
C480        C  0.75253778  0.34869487  0.15940168     0.17200
C481        C  0.75464794  0.36616179  0.19489032     0.03500
C482        C  0.73395414  0.35371939  0.21840125    -0.11700
C483        C  0.71107823  0.32388710  0.20789536    -0.02800
C484        C  0.70846933  0.30650012  0.17216635     0.02700
C485        C  0.77518900  0.36105872  0.13461029     0.09600
N486        N  0.77830806  0.39628708  0.20822261     0.65900
H487        H  0.73641096  0.36750420  0.24582331     0.18800
N488        N  0.68445993  0.27658053  0.15908783     0.76400
H489        H  0.72635281  0.30566746  0.12050447     0.10300
C490        C  0.79024469  0.34686666  0.11983153     0.04000
C491        C  0.81516689  0.36198487  0.10294097    -0.04700
C492        C  0.82540881  0.39098492  0.10043155    -0.23100
C493        C  0.80912891  0.40417743  0.11225746     0.13300
C494        C  0.78380606  0.38883724  0.12837211    -0.12200
N495        N  0.78194710  0.31818088  0.12423746     0.65000
H496        H  0.82784857  0.35176881  0.09407308     0.12800
N497        N  0.81910759  0.43384214  0.11044132     0.61600
H498        H  0.77168388  0.39952564  0.13806187     0.09000
O499        O  0.68793424  0.25540070  0.15996858    -0.39900
O500        O  0.66295744  0.27150596  0.13861818    -0.39000
O501        O  0.77359745  0.41708490  0.21056155    -0.39000
O502        O  0.80112495  0.40157883  0.22592895    -0.36800
O503        O  0.80680280  0.43794246  0.08571090    -0.37700
O504        O  0.83493849  0.45523427  0.13794700    -0.33800
O505        O  0.76882656  0.29580884  0.09686225    -0.35200
O506        O  0.79309066  0.31621199  0.15228333    -0.39500
N507        N  0.86405222  0.40669239  0.05784574    -0.02300
C508        C  0.89368542  0.42084211  0.06352701     0.00300
C509        C  0.90388852  0.47673996  0.58848568    -0.22600
C510        C  0.88114807  0.46877002  0.60931168    -0.22800
C511        C  0.85640519  0.44546582  0.58627998     0.00200
H512        H  0.92677901  0.49250233  0.59873174     0.13900
H513        H  0.88296727  0.47700699  0.63895984     0.14000
N514        N  0.57985349  0.07493090  0.98091550    -0.02300
C515        C  0.56564658  0.04525017  0.96445629     0.00300
C516        C  0.57468902  0.04040219  0.93025225    -0.22600
C517        C  0.59455833  0.06767500  0.92501963    -0.22800
C518        C  0.59751656  0.08865909  0.95634314     0.00200
H519        H  0.56622512  0.01924599  0.91015431     0.13900
H520        H  0.60410302  0.07174945  0.89972861     0.14000
N521        N  0.50328268  0.36140376  0.03240830    -0.02300
C522        C  0.48363228  0.37015975  0.03269048     0.00300
C523        C  0.46659615  0.35975999  0.58240659    -0.22600
C524        C  0.48198644  0.35119012  0.60001087    -0.22800
C525        C  0.50133141  0.34965000  0.57661026     0.00200
H526        H  0.45071557  0.36472364  0.59406804     0.13900
H527        H  0.47988869  0.34725761  0.62736890     0.14000
Fe528      Fe  0.67677128  0.27254823  0.77018844     1.65800
Fe529      Fe  0.60792989  0.25958463  0.77653706     1.73200
Fe530      Fe  0.66698820  0.33058175  0.79423042     1.54400
O531        O  0.69513862  0.33669275  0.83816239    -0.80500
O532        O  0.59919127  0.28217543  0.74550126    -0.78800
O533        O  0.70979016  0.30632162  0.81120386    -0.83000
O534        O  0.69433421  0.29596209  0.73056144    -0.77900
O535        O  0.63792199  0.33016262  0.83143036    -0.79700
O536        O  0.60536738  0.23179067  0.72654267    -0.82400
C537        C  0.70404208  0.32324087  0.73320390     0.98400
C538        C  0.71217863  0.32683659  0.83792315     1.05800
O539        O  0.65032010  0.28743450  0.78035681    -1.11400
O540        O  0.61366291  0.23481515  0.80764801    -0.73800
O541        O  0.66072629  0.24840416  0.80911162    -0.77300
O542        O  0.69858384  0.33872429  0.75904437    -0.78000
C543        C  0.63566459  0.23456237  0.81971846     0.97300
O544        O  0.64859844  0.23596850  0.72805065    -0.75900
O545        O  0.60320441  0.28306073  0.82531752    -0.81100
C546        C  0.61396542  0.30660829  0.73613804     0.99900
C547        C  0.61493361  0.31050373  0.84121954     1.05800
O548        O  0.64007883  0.32664906  0.75075116    -0.76800
C549        C  0.62251942  0.22368795  0.71333241     1.04100
N550        N  0.08116422  0.47141323  0.90492493    -0.02300
C551        C  0.05150701  0.45359309  0.90172805     0.00300
C552        C  0.03923051  0.44762577  0.86604930    -0.22600
C553        C  0.06170380  0.46212712  0.84656875    -0.22800
C554        C  0.08700688  0.47649105  0.87085805     0.00200
H555        H  0.01618585  0.43561823  0.85589412     0.13900
H556        H  0.05979533  0.46294339  0.81807113     0.14000
N557        N  0.40260327  0.81898265  0.99092542    -0.02300
C558        C  0.41950689  0.84893955  0.00449662     0.00300
C559        C  0.48219049  0.84447167  0.50467398    -0.22600
C560        C  0.46667784  0.81972944  0.51776233    -0.22800
C561        C  0.44137227  0.80080319  0.49338372     0.00200
H562        H  0.50217052  0.86479629  0.51849054     0.13900
H563        H  0.47216470  0.81673483  0.54366368     0.14000
N564        N  0.41776730  0.49056185  0.89457861    -0.02300
C565        C  0.42991137  0.47357142  0.88678408     0.00300
C566        C  0.43727531  0.47189454  0.85120151    -0.22600
C567        C  0.42985836  0.48847981  0.83643455    -0.22800
C568        C  0.41840552  0.50012853  0.86352393     0.00200
H569        H  0.44677821  0.45956083  0.83732557     0.13900
H570        H  0.43174402  0.49089218  0.80839039     0.14000
Fe571      Fe  0.34643462  0.62672862  0.68835302     1.65800
Fe572      Fe  0.28183412  0.55992695  0.66325861     1.73200
Fe573      Fe  0.28234109  0.62442029  0.68270448     1.54400
O574        O  0.31091524  0.66016895  0.72621399    -0.80500
O575        O  0.25870346  0.55739104  0.61722914    -0.78800
O576        O  0.34708787  0.65350949  0.73756885    -0.83000
O577        O  0.34984715  0.65591278  0.65835542    -0.77900
O578        O  0.25854035  0.60244470  0.72082876    -0.79700
O579        O  0.31150067  0.55780000  0.62901997    -0.82400
C580        C  0.33208818  0.65905358  0.64038413     0.98400
C581        C  0.33349255  0.66685877  0.74623583     1.05800
O582        O  0.30366500  0.60363610  0.67811812    -1.11400
O583        O  0.30298051  0.55780733  0.70746018    -0.73800
O584        O  0.34691533  0.59976126  0.71895493    -0.77300
O585        O  0.30513380  0.64685113  0.64452116    -0.78000
C586        C  0.32867108  0.57468751  0.72480290     0.97300
O587        O  0.35186790  0.60279446  0.64092785    -0.75900
O588        O  0.24901942  0.55646904  0.69582488    -0.81100
C589        C  0.24437905  0.56983423  0.61587437     0.99900
C590        C  0.24470286  0.57471569  0.71882048     1.05800
O591        O  0.24947227  0.59280601  0.64035569    -0.76800
C592        C  0.33696795  0.57584876  0.62247598     1.04100
C593        C  0.34215085  0.52868748  0.77606190    -0.13200
C594        C  0.36252579  0.55100213  0.80602264     0.17200
C595        C  0.36999348  0.58054316  0.81039889     0.03500
C596        C  0.35778953  0.58748055  0.78429124    -0.11700
C597        C  0.33828579  0.56542303  0.75343355    -0.02800
C598        C  0.33000530  0.53559499  0.74973228     0.02700
C599        C  0.37856842  0.54340398  0.82891603     0.09600
N600        N  0.39027720  0.60376102  0.84088016     0.65900
H601        H  0.36409650  0.61050740  0.78782499     0.18800
N602        N  0.31137164  0.51257829  0.71794398     0.76400
H603        H  0.33683280  0.50591935  0.77200006     0.10300
C604        C  0.36403030  0.52297016  0.85045325     0.04000
C605        C  0.37777895  0.51009171  0.86371218    -0.04700
C606        C  0.40637233  0.51817802  0.85666033    -0.23100
C607        C  0.42173282  0.54082566  0.83797075     0.13300
C608        C  0.40763138  0.55291430  0.82397332    -0.12200
N609        N  0.33505867  0.51470268  0.85808602     0.65000
H610        H  0.36562072  0.49285051  0.87802695     0.12800
N611        N  0.45145581  0.55125211  0.83202739     0.61600
H612        H  0.41900660  0.56874417  0.80749524     0.09000
O613        O  0.28499779  0.49455660  0.72065583    -0.39900
O614        O  0.32252455  0.50657857  0.69002919    -0.39000
O615        O  0.41645835  0.62054523  0.83609545    -0.39000
O616        O  0.38076478  0.61150486  0.86947438    -0.36800
O617        O  0.45718150  0.54412880  0.79990762    -0.37700
O618        O  0.47164005  0.57310792  0.85575421    -0.33800
O619        O  0.31354961  0.48995809  0.84051334    -0.35200
O620        O  0.33070651  0.53376104  0.87831752    -0.39500
C621        C  0.37349350  0.49826275  0.49573168    -0.13200
C622        C  0.38264713  0.52847053  0.50301243     0.17200
C623        C  0.40401795  0.54639384  0.48291860     0.03500
C624        C  0.41541064  0.53391608  0.45614959    -0.11700
C625        C  0.40503659  0.50337166  0.44712966    -0.02800
C626        C  0.38576055  0.47731917  0.94506804     0.02700
C627        C  0.37070000  0.54123140  0.53258485     0.09600
N628        N  0.41293859  0.57683164  0.48757120     0.65900
H629        H  0.43178239  0.54813076  0.44080388     0.18800
N630        N  0.37471410  0.44631074  0.93112992     0.76400
H631        H  0.35753628  0.48425276  0.51162958     0.10300
C632        C  0.34033733  0.52865261  0.53324720     0.04000
C633        C  0.33003598  0.54038299  0.56262794    -0.04700
C634        C  0.34932180  0.56473722  0.59177861    -0.23100
C635        C  0.37976990  0.57749159  0.59095242     0.13300
C636        C  0.39002527  0.56561898  0.56159094    -0.12200
N637        N  0.31963794  0.50434020  0.50394046     0.65000
H638        H  0.30654667  0.53040819  0.56235489     0.12800
N639        N  0.40057678  0.60126588  0.62065387     0.61600
H640        H  0.41346025  0.57502491  0.56211699     0.09000
O641        O  0.35381551  0.43123053  0.90514643    -0.39900
O642        O  0.38005120  0.43302206  0.95083610    -0.39000
O643        O  0.43814682  0.59710855  0.50365358    -0.39000
O644        O  0.39875778  0.58307452  0.46836370    -0.36800
O645        O  0.40743579  0.59524888  0.64836667    -0.37700
O646        O  0.41689839  0.62674447  0.61523422    -0.33800
O647        O  0.30441085  0.47882787  0.50971084    -0.35200
O648        O  0.31177713  0.50963792  0.47626377    -0.39500
C649        C  0.35486547  0.75936800  0.90643341    -0.13200
C650        C  0.37561835  0.75825935  0.88454816     0.17200
C651        C  0.40549604  0.77991577  0.89593440     0.03500
C652        C  0.41426951  0.80129254  0.93007239    -0.11700
C653        C  0.39347334  0.80147750  0.95291385    -0.02800
C654        C  0.36344862  0.78095843  0.94003942     0.02700
C655        C  0.36541049  0.73496480  0.84919410     0.09600
N656        N  0.42704283  0.78026074  0.87311588     0.65900
H657        H  0.43733374  0.81686121  0.93954538     0.18800
N658        N  0.34136477  0.78230591  0.96037086     0.76400
H659        H  0.33179470  0.74346356  0.89717281     0.10300
C660        C  0.36553939  0.70865971  0.84623852     0.04000
C661        C  0.35560107  0.68713791  0.81228743    -0.04700
C662        C  0.34424566  0.69065835  0.78131732    -0.23100
C663        C  0.34340067  0.71673202  0.78474708     0.13300
C664        C  0.35424219  0.73866496  0.81839581    -0.12200
N665        N  0.37411136  0.70274550  0.87792097     0.65000
H666        H  0.35580262  0.66694776  0.81049405     0.12800
N667        N  0.33230389  0.72168493  0.75419847     0.61600
H668        H  0.35377186  0.75875562  0.82060308     0.09000
O669        O  0.32240236  0.75971873  0.97042887    -0.39900
O670        O  0.33633053  0.80248254  0.95951976    -0.39000
O671        O  0.43140177  0.79148758  0.84577294    -0.39000
O672        O  0.43927761  0.76642915  0.87768376    -0.36800
O673        O  0.30657027  0.71649521  0.75237942    -0.37700
O674        O  0.34996592  0.73775821  0.73496007    -0.33800
O675        O  0.39715958  0.70205814  0.87942879    -0.35200
O676        O  0.35561522  0.69160675  0.89956495    -0.39500
C677        C  0.38171602  0.70682467  0.57935966    -0.13200
C678        C  0.36285570  0.71190802  0.56106802     0.17200
C679        C  0.33365724  0.69928314  0.56839978     0.03500
C680        C  0.32420059  0.68255534  0.59473355    -0.11700
C681        C  0.34318793  0.67748820  0.61332590    -0.02800
C682        C  0.37221665  0.68950973  0.60470921     0.02700
C683        C  0.37554066  0.73181329  0.53617840     0.09600
N684        N  0.31306392  0.70193217  0.54818713     0.65900
H685        H  0.30159441  0.67299925  0.60005582     0.18800
N686        N  0.39216605  0.68352376  0.62012888     0.76400
H687        H  0.40429545  0.71643854  0.57378938     0.10300
C688        C  0.38013651  0.76064675  0.54617937     0.04000
C689        C  0.40034516  0.78227401  0.52953194    -0.04700
C690        C  0.41627089  0.77576893  0.50340268    -0.23100
C691        C  0.41084618  0.74679741  0.49210256     0.13300
C692        C  0.38995417  0.72481599  0.50784791    -0.12200
N693        N  0.36720273  0.76932805  0.57604319     0.65000
H694        H  0.40505516  0.80492025  0.53880061     0.12800
N695        N  0.41773967  0.77014314  0.99225106     0.61600
H696        H  0.38711987  0.70287685  0.50066817     0.09000
O697        O  0.41165559  0.70300554  0.64639775    -0.42800
O698        O  0.39465031  0.66244281  0.60211291    -0.39000
O699        O  0.30073900  0.68421232  0.51679375    -0.39000
O700        O  0.30177413  0.71583958  0.56514189    -0.36800
O701        O  0.44116597  0.79009768  0.01289018    -0.37700
O702        O  0.41907019  0.75563083  0.96157237    -0.33800
O703        O  0.37925156  0.77731042  0.60881577    -0.35200
O704        O  0.34906237  0.77637656  0.56929602    -0.39500
C705        C  0.19640172  0.53217498  0.52245588    -0.13200
C706        C  0.17166573  0.53331515  0.53192459     0.17200
C707        C  0.17070303  0.54555138  0.56886827     0.03500
C708        C  0.19476626  0.55747225  0.59544014    -0.11700
C709        C  0.21975916  0.55669934  0.58618421    -0.02800
C710        C  0.22027076  0.54336353  0.54931262     0.02700
C711        C  0.14775793  0.52320625  0.50257890     0.09600
N712        N  0.14534513  0.54585829  0.57978125     0.65900
H713        H  0.19368412  0.56704054  0.62384727     0.18800
N714        N  0.24513990  0.54198019  0.53844662     0.76400
H715        H  0.19726050  0.52276076  0.49387596     0.10300
C716        C  0.14963228  0.54226308  0.48117017     0.04000
C717        C  0.12561088  0.51317200  0.94551876    -0.04700
C718        C  0.10397795  0.50219939  0.44290287    -0.23100
C719        C  0.10182124  0.48332502  0.46517534     0.13300
C720        C  0.12360819  0.49405666  0.49486136    -0.12200
N721        N  0.17410141  0.57211125  0.48837269     0.65000
H722        H  0.12628729  0.52780297  0.92957985     0.12800
N723        N  0.07881595  0.45279659  0.45686187     0.61600
H724        H  0.12217492  0.47923921  0.51123189     0.09000
O725        O  0.26412059  0.56163979  0.52404763    -0.39900
O726        O  0.24492554  0.51827148  0.53595357    -0.39000
O727        O  0.12565774  0.52437186  0.59098612    -0.39000
O728        O  0.14542160  0.56972092  0.58539760    -0.36800
O729        O  0.08224772  0.43377359  0.43482946    -0.37700
O730        O  0.06001944  0.44428129  0.47897926    -0.33800
O731        O  0.19433084  0.55780812  0.95984575    -0.35200
O732        O  0.17554406  0.59184802  0.51515993    -0.39500
C733        C  0.17762609  0.52475182  0.75991972    -0.13200
C734        C  0.18487472  0.54062789  0.79725192     0.17200
C735        C  0.21139096  0.56829795  0.80837933     0.03500
C736        C  0.23016446  0.57944847  0.78213367    -0.11700
C737        C  0.22322341  0.56323587  0.74491877    -0.02800
C738        C  0.19644384  0.53575939  0.73374751     0.02700
C739        C  0.16377640  0.52784722  0.82337854     0.09600
N740        N  0.22025133  0.58456061  0.84638609     0.65900
H741        H  0.25087031  0.60049285  0.79120231     0.18800
N742        N  0.18746327  0.51947908  0.69571762     0.76400
H743        H  0.15692414  0.50368440  0.75094270     0.10300
C744        C  0.14603952  0.53921019  0.83626530     0.04000
C745        C  0.12219226  0.52305309  0.85426929    -0.04700
C746        C  0.11579315  0.49578673  0.85993284    -0.23100
C747        C  0.13433314  0.48518401  0.84901147     0.13300
C748        C  0.15820880  0.50124692  0.83082168    -0.12200
N749        N  0.15013974  0.56551148  0.82811838     0.65000
H750        H  0.10760720  0.53100305  0.86206990     0.12800
N751        N  0.12757831  0.45690043  0.85325479     0.61600
H752        H  0.17146111  0.49212543  0.82060595     0.09000
O753        O  0.17245564  0.52408039  0.67535390    -0.39900
O754        O  0.18920698  0.49672670  0.68479386    -0.39000
O755        O  0.23384165  0.57873183  0.86717621    -0.39000
O756        O  0.22125295  0.60890090  0.85635430    -0.36800
O757        O  0.10791899  0.43337413  0.83092423    -0.37700
O758        O  0.13812246  0.45534301  0.88215000    -0.33800
O759        O  0.13720185  0.56327406  0.79843509    -0.35200
O760        O  0.15993201  0.58887778  0.85397397    -0.39500
C761        C  0.43945505  0.38682137  0.97527692    -0.13200
C762        C  0.46124727  0.40908739  0.96066292     0.17200
C763        C  0.49034780  0.41607491  0.96627436     0.03500
C764        C  0.48958384  0.40131437  0.51373720    -0.11700
C765        C  0.47543876  0.38014649  0.00351606    -0.02800
C766        C  0.44614587  0.37220881  0.99622415     0.02700
C767        C  0.45303822  0.42577169  0.94193437     0.09600
N768        N  0.50474551  0.44326280  0.48677845     0.65900
H769        H  0.51258279  0.40915020  0.52002147     0.18800
N770        N  0.42294796  0.34969202  0.01057166     0.76400
H771        H  0.41697065  0.38129029  0.97133881     0.10300
C772        C  0.43091631  0.41085936  0.91143887     0.04000
C773        C  0.42206551  0.42675847  0.89603043    -0.04700
C774        C  0.43472002  0.45748764  0.91035909    -0.23100
C775        C  0.44741705  0.47231702  0.47109107     0.13300
C776        C  0.45476244  0.45589065  0.48821282    -0.12200
N777        N  0.41813314  0.37980473  0.89479034     0.65000
H778        H  0.40591920  0.41518423  0.87152494     0.12800
N779        N  0.46107905  0.50360875  0.48648848     0.61600
H780        H  0.47009028  0.46720607  0.51349720     0.09000
O781        O  0.41081731  0.32283742  0.99256111    -0.39900
O782        O  0.41038982  0.35696843  0.03571158    -0.39000
O783        O  0.52004095  0.46712741  0.51159794    -0.39000
O784        O  0.51380475  0.44015860  0.45581473    -0.36800
O785        O  0.45019045  0.51296913  0.51202004    -0.37700
O786        O  0.48701470  0.52081590  0.48124265    -0.33800
O787        O  0.39207459  0.36169542  0.89866770    -0.35200
O788        O  0.43037606  0.37148257  0.87022046    -0.39500
C789        C  0.52926145  0.30504376  0.60469673    -0.13200
C790        C  0.55522995  0.32778002  0.62764811     0.17200
C791        C  0.56582665  0.35761706  0.62749823     0.03500
C792        C  0.54899460  0.36438174  0.60795386    -0.11700
C793        C  0.52228360  0.34179729  0.58695982    -0.02800
C794        C  0.51295299  0.31191350  0.58415286     0.02700
C795        C  0.56985502  0.32053655  0.65374049     0.09600
N796        N  0.59260108  0.38148965  0.64922782     0.65900
H797        H  0.55600288  0.38747729  0.61101181     0.18800
N798        N  0.48739520  0.29624782  0.05395787     0.76400
H799        H  0.52122758  0.28196259  0.60354895     0.10300
C800        C  0.55470927  0.30534567  0.68043589     0.04000
C801        C  0.56954749  0.30105139  0.70669431    -0.04700
C802        C  0.59948100  0.31160720  0.70726407    -0.23100
C803        C  0.61445172  0.32580592  0.67973171     0.13300
C804        C  0.59957251  0.33013594  0.65337409    -0.12200
N805        N  0.52447052  0.29506417  0.68217143     0.65000
H806        H  0.55757158  0.28983825  0.72744710     0.12800
N807        N  0.64424515  0.33452952  0.67695702     0.61600
H808        H  0.61131894  0.34095615  0.63224775     0.09000
O809        O  0.48772556  0.28792048  0.01970224    -0.39900
O810        O  0.46326734  0.28804075  0.06654741    -0.39000
O811        O  0.61530347  0.39350862  0.63364040    -0.39000
O812        O  0.59222664  0.39420456  0.68173904    -0.36800
O813        O  0.64994309  0.31588534  0.65863500    -0.37700
O814        O  0.66396000  0.36178415  0.68576037    -0.33800
O815        O  0.50565841  0.26766383  0.67039621    -0.35200
O816        O  0.51741738  0.31175141  0.70271059    -0.39500
C817        C  0.52273487  0.33042747  0.94327306    -0.13200
C818        C  0.55274249  0.34256020  0.95278372     0.17200
C819        C  0.56654956  0.36349378  0.98717910     0.03500
C820        C  0.55019371  0.37093668  0.01159975    -0.11700
C821        C  0.51986870  0.35743315  0.00329994    -0.02800
C822        C  0.50625585  0.33769987  0.96802768     0.02700
C823        C  0.56961894  0.33435235  0.92593766     0.09600
N824        N  0.59685591  0.37612366  0.99861350     0.65900
H825        H  0.56126308  0.38692451  0.03813035     0.18800
N826        N  0.47577284  0.32445663  0.95710545     0.76400
H827        H  0.51192596  0.31499641  0.91633894     0.10300
C828        C  0.56261644  0.30472314  0.91304770     0.04000
C829        C  0.57801606  0.29769411  0.88630270    -0.04700
C830        C  0.60063978  0.31964132  0.87162792    -0.23100
C831        C  0.60789716  0.34949583  0.88519647     0.13300
C832        C  0.59244159  0.35640901  0.91196228    -0.12200
N833        N  0.54022318  0.28155318  0.92731306     0.65000
H834        H  0.57199634  0.27462975  0.87684081     0.12800
N835        N  0.62994109  0.37298375  0.87104409     0.61600
H836        H  0.59783887  0.37929516  0.92120045     0.09000
O837        O  0.45418505  0.29593865  0.47227633    -0.39900
O838        O  0.45881803  0.33217278  0.45102604    -0.39000
O839        O  0.61507197  0.40253974  0.99754110    -0.39000
O840        O  0.60429294  0.36362691  0.01720265    -0.36800
O841        O  0.62266118  0.38018772  0.84487628    -0.37700
O842        O  0.65476880  0.39057256  0.88986451    -0.33800
O843        O  0.51577975  0.26338468  0.90780490    -0.35200
O844        O  0.54686055  0.27543203  0.95508072    -0.39500
C845        C  0.47922380  0.91457940  0.47747477    -0.13200
C846        C  0.47683710  0.92978835  0.97762249     0.17200
C847        C  0.48701664  0.91142846  0.98382230     0.03500
C848        C  0.46711552  0.88272046  0.98740823    -0.11700
C849        C  0.43705741  0.87149193  0.98437712    -0.02800
C850        C  0.46272499  0.88427031  0.47654383     0.02700
C851        C  0.49745114  0.96170843  0.97785411     0.09600
N852        N  0.51749567  0.92181330  0.98783985     0.65900
H853        H  0.47536068  0.86990012  0.99532572     0.18800
N854        N  0.43864733  0.87373321  0.49753215     0.76400
H855        H  0.47390586  0.92944260  0.49537208     0.10300
C856        C  0.49414075  0.97381894  0.94971184     0.04000
C857        C  0.51493513  0.00312360  0.94946769    -0.04700
C858        C  0.54008529  0.02060179  0.97557964    -0.23100
C859        C  0.54257265  0.00944257  0.00511029     0.13300
C860        C  0.52089824  0.98050162  0.00651640    -0.12200
N861        N  0.47158342  0.95588117  0.91902643     0.65000
H862        H  0.51288390  0.01133698  0.92624280     0.12800
N863        N  0.56812200  0.02592541  0.03174227     0.61600
H864        H  0.52314067  0.97224902  0.02955436     0.09000
O865        O  0.44275700  0.87533077  0.53141105    -0.39900
O866        O  0.41301919  0.86155172  0.48167614    -0.39000
O867        O  0.53040940  0.92776117  0.01947099    -0.39000
O868        O  0.52906468  0.91747451  0.95951391    -0.36800
O869        O  0.56738619  0.04001111  0.06314112    -0.37700
O870        O  0.58839615  0.02070304  0.02723796    -0.33800
O871        O  0.45100195  0.96039850  0.91597036    -0.35200
O872        O  0.47601075  0.94123917  0.89118322    -0.39500
C873        C  0.64484485  0.15840090  0.92549843    -0.13200
C874        C  0.62724638  0.17066949  0.92946962     0.17200
C875        C  0.60414092  0.16004823  0.95126833     0.03500
C876        C  0.59682620  0.13515970  0.96448182    -0.11700
C877        C  0.61241135  0.12073349  0.95681740    -0.02800
C878        C  0.63801948  0.13388063  0.93937007     0.02700
C879        C  0.62925604  0.18928934  0.90432568     0.09600
N880        N  0.58645585  0.17282279  0.95762404     0.65900
H881        H  0.57697403  0.12542628  0.97744072     0.18800
N882        N  0.65563083  0.12083688  0.93249152     0.76400
H883        H  0.66270626  0.16638421  0.90886091     0.10300
C884        C  0.65570290  0.21514115  0.90203279     0.04000
C885        C  0.65711035  0.22942414  0.87439005    -0.04700
C886        C  0.63270025  0.21844506  0.84840131    -0.23100
C887        C  0.60630501  0.19258163  0.85066262     0.13300
C888        C  0.60489300  0.17835592  0.87834168    -0.12200
N889        N  0.68132759  0.22718730  0.92741106     0.65000
H890        H  0.67764042  0.24947069  0.87335555     0.12800
N891        N  0.58141426  0.17919869  0.82351490     0.61600
H892        H  0.58479493  0.15758703  0.87836391     0.09000
O893        O  0.66701261  0.12062574  0.90279886    -0.39900
O894        O  0.65995129  0.10952124  0.95606120    -0.39000
O895        O  0.56087090  0.15880232  0.94074238    -0.39000
O896        O  0.59382976  0.19438558  0.98542950    -0.36800
O897        O  0.57833466  0.15983604  0.79496267    -0.37700
O898        O  0.55991027  0.18173812  0.83175468    -0.33800
O899        O  0.70180578  0.22362034  0.91656719    -0.35200
O900        O  0.68662316  0.24743711  0.95605936    -0.39500
C901        C  0.61157309  0.11699240  0.57950175    -0.13200
C902        C  0.59007295  0.12433506  0.58597297     0.17200
C903        C  0.56570634  0.11074832  0.55841757     0.03500
C904        C  0.56447757  0.09227270  0.52457919    -0.11700
C905        C  0.57857618  0.08935454  0.01773992    -0.02800
C906        C  0.60377317  0.10606589  0.04415142     0.02700
C907        C  0.59507768  0.14820696  0.61967932     0.09600
N908        N  0.54204009  0.11546030  0.56427804     0.65900
H909        H  0.54639790  0.08310460  0.50307588     0.18800
N910        N  0.63007034  0.10647828  0.03619669     0.76400
H911        H  0.63083484  0.12745082  0.59952574     0.10300
C912        C  0.60485102  0.14886409  0.65518832     0.04000
C913        C  0.61332684  0.17359559  0.68499514    -0.04700
C914        C  0.61164833  0.19776396  0.68093075    -0.23100
C915        C  0.60089949  0.19691687  0.64607683     0.13300
C916        C  0.59317749  0.17249814  0.61579123    -0.12200
N917        N  0.60598476  0.12445459  0.66173564     0.65000
H918        H  0.62120744  0.17383691  0.71190637     0.12800
N919        N  0.59948654  0.22142520  0.64046332     0.61600
H920        H  0.58678771  0.17318453  0.58865191     0.09000
O921        O  0.65414251  0.13094254  0.04162763    -0.39900
O922        O  0.62935855  0.08250045  0.02342433    -0.39000
O923        O  0.53792049  0.13004235  0.54551527    -0.39000
O924        O  0.52171616  0.09935086  0.58093443    -0.36800
O925        O  0.62061500  0.24143476  0.62875582    -0.37700
O926        O  0.57530963  0.21996543  0.63994376    -0.33800
O927        O  0.63053260  0.12770466  0.66899396    -0.35200
O928        O  0.58345960  0.10337355  0.66993708    -0.39500
C929        C  0.98518014  0.41349956  0.94859578    -0.13200
C930        C  0.98791320  0.43697674  0.97695392     0.17200
C931        C  0.01514086  0.49114669  0.48476866     0.03500
C932        C  0.03813501  0.49437744  0.46416208    -0.11700
C933        C  0.03301683  0.44639505  0.93195499    -0.02800
C934        C  0.00768598  0.41783219  0.92675214     0.02700
C935        C  0.96221719  0.43196424  0.99710892     0.09600
N936        N  0.02009649  0.51560190  0.51441048     0.65900
H937        H  0.05824149  0.51592403  0.46903824     0.18800
N938        N  0.00438331  0.39323002  0.89862341     0.76400
H939        H  0.96521745  0.39179390  0.94287885     0.10300
C940        C  0.95069778  0.45055695  0.99984227     0.04000
C941        C  0.92728677  0.44571342  0.02019346    -0.04700
C942        C  0.91349880  0.42140530  0.03573211    -0.23100
C943        C  0.92172154  0.43549266  0.52915377     0.13300
C944        C  0.94629771  0.43862106  0.51231258    -0.12200
N945        N  0.96136521  0.47343905  0.98055946     0.65000
H946        H  0.92013669  0.46139924  0.02439387     0.12800
N947        N  0.90836746  0.41420689  0.55070391     0.61600
H948        H  0.95420956  0.42426244  0.51510653     0.09000
O949        O  0.98448180  0.38072872  0.87156421    -0.39900
O950        O  0.02199095  0.38456711  0.90016154    -0.39000
O951        O  0.02442149  0.51494355  0.54726703    -0.39000
O952        O  0.02779766  0.54021831  0.50769151    -0.36800
O953        O  0.88554108  0.38928138  0.53688665    -0.37700
O954        O  0.91804159  0.42115319  0.58439582    -0.33800
O955        O  0.95507040  0.46611568  0.94583918    -0.35200
O956        O  0.96965134  0.49967584  0.99826821    -0.39500
C957        C  0.77888350  0.34352845  0.89861761    -0.13200
C958        C  0.77579249  0.35728652  0.93326545     0.17200
C959        C  0.75222327  0.36185858  0.93638029     0.03500
C960        C  0.73226135  0.35260671  0.90502132    -0.11700
C961        C  0.73516612  0.33863513  0.87009114    -0.02800
C962        C  0.75913485  0.33437305  0.86721391     0.02700
C963        C  0.79903630  0.36933438  0.96480179     0.09600
N964        N  0.74784656  0.37514159  0.97145068     0.65900
H965        H  0.71395444  0.35582100  0.90828666     0.18800
N966        N  0.76456016  0.32187404  0.83238626     0.76400
H967        H  0.79736806  0.34055313  0.89569548     0.10300
C968        C  0.80243068  0.35069608  0.98271181     0.04000
C969        C  0.82514311  0.36317325  0.01183348    -0.04700
C970        C  0.84474389  0.39404984  0.02357373    -0.23100
C971        C  0.84183669  0.41252880  0.00482343     0.13300
C972        C  0.81921601  0.40005050  0.97568567    -0.12200
N973        N  0.78225000  0.31926689  0.97266877     0.65000
H974        H  0.82698344  0.34868439  0.02627533     0.12800
N975        N  0.86097683  0.44411648  0.01594554     0.61600
H976        H  0.81707822  0.41460606  0.96169916     0.09000
O977        O  0.75833702  0.29529438  0.82493246    -0.39900
O978        O  0.78129661  0.33895428  0.81340732    -0.39000
O979        O  0.75417481  0.40173816  0.97842076    -0.39000
O980        O  0.73249832  0.35881523  0.99200058    -0.36800
O981        O  0.87573035  0.45765656  0.99270921    -0.37700
O982        O  0.85812552  0.45871751  0.04533248    -0.33800
O983        O  0.78937991  0.30247301  0.95255383    -0.35200
O984        O  0.76019495  0.30815424  0.98961430    -0.39500
C985        C  0.75388490  0.34199516  0.65741427    -0.13200
C986        C  0.76197107  0.37148628  0.66026974     0.17200
C987        C  0.74886993  0.38390141  0.68458642     0.03500
C988        C  0.72949440  0.36737792  0.70704217    -0.11700
C989        C  0.72266103  0.33839095  0.70602186    -0.02800
C990        C  0.73449448  0.32538898  0.67990836     0.02700
C991        C  0.78549217  0.38941374  0.63957606     0.09600
N992        N  0.75608723  0.41374398  0.68821842     0.65900
H993        H  0.72027525  0.37783522  0.72618309     0.18800
N994        N  0.72787360  0.29579477  0.67651350     0.76400
H995        H  0.76332394  0.33194073  0.63801268     0.10300
C996        C  0.81342983  0.39357633  0.64508538     0.04000
C997        C  0.83551410  0.41075880  0.62585334    -0.04700
C998        C  0.83072498  0.42465726  0.60159975    -0.23100
C999        C  0.80278544  0.42031319  0.59554551     0.13300
C1000       C  0.78030339  0.40250429  0.61433298    -0.12200
N1001       N  0.82019331  0.38194966  0.67178421     0.65000
H1002       H  0.85709501  0.41416437  0.63091543     0.12800
N1003       N  0.79722288  0.43461546  0.57164539     0.61600
H1004       H  0.75875997  0.39923297  0.60961073     0.09000
O1005       O  0.74550474  0.29176887  0.69268718    -0.39900
O1006       O  0.70821281  0.27472556  0.65151318    -0.39000
O1007       O  0.73833898  0.41817633  0.67309755    -0.39000
O1008       O  0.77605485  0.43453790  0.71312142    -0.36800
O1009       O  0.78168510  0.41925912  0.54081822    -0.37700
O1010       O  0.80171525  0.46032612  0.58464752    -0.33800
O1011       O  0.82226152  0.35938406  0.66098427    -0.35200
O1012       O  0.83008707  0.39764016  0.70464343    -0.39500
loop_ 
_geom_bond_atom_site_label_1 
_geom_bond_atom_site_label_2 
_geom_bond_distance 
_geom_bond_site_symmetry_2 
_ccdc_geom_bond_type 
N1            C2   1.360       .  A
N1          C511   1.358       .  A
N1          C464   1.445       .  S
C2          C436   1.477       .  S
C2          C509   1.380       .  A
C3            C4   1.373       .  A
C3          C508   1.382       .  A
C3            H6   1.082       .  S
C4            C5   1.379       .  A
C4            H7   1.082       .  S
C5          N507   1.354       .  A
C5          C492   1.469       .  S
N8           C12   1.352       .  A
N8            C9   1.358       .  A
N8          C399   1.440       .  S
C9          C352   1.478       .  S
C9           C10   1.385       .  A
C10          C11   1.373       .  A
C10          H13   1.082       .  S
C11          C12   1.378       .  A
C11          H14   1.082       .  S
C12         C371   1.473       .  S
N15          C16   1.363       .  A
N15         C525   1.359       .  A
N15         C315   1.448       .  S
C16         C259   1.481       .  S
C16         C523   1.385       .  A
C17          C18   1.366       .  A
C17         C522   1.386       .  A
C17          H20   1.082       .  S
C18          C19   1.375       .  A
C18          H21   1.082       .  S
C19         N521   1.359       .  A
C19         C287   1.470       .  S
Fe22         O38   2.079       .  S
Fe22         O28   2.060       .  S
Fe22         O35   2.053       .  S
Fe22         O27   2.086       .  S
Fe22         O33   1.962       .  S
Fe23         O26   2.070       .  S
Fe23         O30   2.075       .  S
Fe23         O34   2.094       .  S
Fe23         O39   2.071       .  S
Fe23         O33   1.960       .  S
Fe24         O42   2.065       .  S
Fe24         O29   2.091       .  S
Fe24         O36   2.072       .  S
Fe24         O25   2.072       .  S
Fe24         O33   1.963       .  S
O25          C32   1.272       .  A
O26          C40   1.273       .  A
O27          C32   1.270       .  A
O28          C31   1.269       .  A
O29          C41   1.272       .  A
O30          C43   1.266       .  A
C31         C483   1.478       .  S
C31          O36   1.273       .  A
C32         C455   1.498       .  S
O34          C37   1.276       .  A
O35          C37   1.270       .  A
C37         C380   1.472       .  S
O38          C43   1.269       .  A
O39          C41   1.272       .  A
C40         C296   1.484       .  S
C40          O42   1.270       .  A
C41         C324   1.501       .  S
C43         C408   1.487       .  S
N44          C48   1.361       .  A
N44          C45   1.362       .  A
N44         C718   1.448       .  S
C45         C427   1.480       .  S
C45          C46   1.384       .  A
C46          C47   1.368       .  A
C46          H49   1.082       .  S
C47          C48   1.377       .  A
C47          H50   1.082       .  S
C48         C240   1.475       .  S
N51          C52   1.358       .  A
N51         C561   1.356       .  A
N51         C147   1.447       .  S
C52         C343   1.470       .  S
C52         C559   1.382       .  A
C53          C54   1.368       .  A
C53         C558   1.382       .  A
C53          H56   1.082       .  S
C54          C55   1.380       .  A
C54          H57   1.082       .  S
C55         N557   1.356   1_554  A
C55         C184   1.471       .  S
N58          C62   1.364       .  A
N58          C59   1.363       .  A
N58         C625   1.447       .  S
C59         C268   1.478       .  S
C59          C60   1.383       .  A
C60          C61   1.365       .  A
C60          H63   1.082       .  S
C61          C62   1.380       .  A
C61          H64   1.081       .  S
C62         C100   1.485       .  S
Fe65         O81   2.054       .  S
Fe65         O71   2.081       .  S
Fe65         O78   2.063       .  S
Fe65         O70   2.050       .  S
Fe65         O76   1.963       .  S
Fe66         O69   2.064       .  S
Fe66         O73   2.089       .  S
Fe66         O77   2.063       .  S
Fe66         O82   2.104       .  S
Fe66         O76   1.967       .  S
Fe67         O85   2.066       .  S
Fe67         O72   2.052       .  S
Fe67         O79   2.035       .  S
Fe67         O68   2.073       .  S
Fe67         O76   1.963       .  S
O68          C75   1.264       .  A
O69          C83   1.266       .  A
O70          C75   1.263       .  A
O71          C74   1.275       .  A
O72          C84   1.269       .  A
O73          C86   1.272       .  A
C74         C175   1.471       .  S
C74          O79   1.270       .  A
C75         C156   1.471       .  S
O77          C80   1.271       .  A
O78          C80   1.273       .  A
C80          C91   1.475       .  S
O81          C86   1.265       .  A
O82          C84   1.277       .  A
C83         C203   1.479       .  S
C83          O85   1.268       .  A
C84         C231   1.474       .  S
C86         C128   1.487       .  S
C87          C88   1.403       .  A
C87          C92   1.399       .  A
C87          H97   1.087       .  S
C88          C93   1.477       .  S
C88          C89   1.407       .  A
C89          N94   1.428       .  S
C89          C90   1.396       .  A
C90          C91   1.404       .  A
C90          H95   1.088       .  S
C91          C92   1.412       .  A
C92          N96   1.429       .  S
C93          C98   1.408       .  A
C93         C102   1.398       .  A
N94         O109   1.262       .  A
N94         O110   1.262       .  A
N96         O107   1.262       .  A
N96         O108   1.262       .  A
C98         N103   1.430       .  S
C98          C99   1.404       .  A
C99         C100   1.406       .  A
C99         H104   1.084       .  S
C100        C101   1.413       .  A
C101        N105   1.429       .  S
C101        C102   1.395       .  A
C102        H106   1.085       .  S
N103        O113   1.262       .  A
N103        O114   1.262       .  A
N105        O111   1.262       .  A
N105        O112   1.262       .  A
C115        C116   1.403       .  A
C115        C626   1.406       .  A
C115        H125   1.089       .  S
C116        C121   1.492   1_556  S
C116        C117   1.411       .  A
C117        N122   1.428       .  S
C117        C118   1.399       .  A
C118        C119   1.402       .  A
C118        H123   1.089       .  S
C119        N564   1.449       .  S
C119        C626   1.416       .  A
C120        N124   1.427       .  S
C120        C621   1.404       .  A
C120        C625   1.414       .  A
C121        C126   1.414       .  A
C121        C130   1.401       .  A
N122        O137   1.262   1_556  A
N122        O138   1.262       .  A
N124        O135   1.262       .  A
N124        O136   1.262       .  A
C126        N131   1.428   1_554  S
C126        C127   1.405       .  A
C127        C128   1.403       .  A
C127        H132   1.088       .  S
C128        C129   1.415       .  A
C129        N133   1.429       .  S
C129        C130   1.401       .  A
C130        H134   1.088       .  S
N131        O141   1.262       .  A
N131        O142   1.262       .  A
N133        O139   1.262       .  A
N133        O140   1.262       .  A
C143        C144   1.396       .  A
C143        C148   1.402       .  A
C143        H153   1.086       .  S
C144        C149   1.476       .  S
C144        C145   1.405       .  A
C145        N150   1.429       .  S
C145        C146   1.400       .  A
C146        C147   1.407       .  A
C146        H151   1.084       .  S
C147        C148   1.419       .  A
C148        N152   1.429       .  S
C149        C154   1.408       .  A
C149        C158   1.401       .  A
N150        O165   1.262       .  A
N150        O166   1.262       .  A
N152        O163   1.262       .  A
N152        O164   1.260       .  A
C154        N159   1.427       .  S
C154        C155   1.395       .  A
C155        C156   1.399       .  A
C155        H160   1.088       .  S
C156        C157   1.412       .  A
C157        N161   1.428       .  S
C157        C158   1.402       .  A
C158        H162   1.088       .  S
N159        O169   1.262       .  A
N159        O170   1.262       .  A
N161        O167   1.262       .  A
N161        O168   1.261       .  A
C171        C172   1.402       .  A
C171        C176   1.394       .  A
C171        H181   1.087       .  S
C172        C177   1.469       .  S
C172        C173   1.404       .  A
C173        N178   1.429       .  S
C173        C174   1.394       .  A
C174        C175   1.406       .  A
C174        H179   1.087       .  S
C175        C176   1.410       .  A
C176        N180   1.429       .  S
C177        C182   1.410       .  A
C177        C186   1.399       .  A
N178        O193   1.262   1_554  A
N178        O194   1.262       .  A
N180        O191   1.261       .  A
N180        O192   1.262       .  A
C182        N187   1.430       .  S
C182        C183   1.394       .  A
C183        C184   1.399       .  A
C183        H188   1.087       .  S
C184        C185   1.412       .  A
C185        N695   1.430   1_554  S
C185        C186   1.396       .  A
C186        H190   1.087       .  S
N187        O197   1.262       .  A
N187        O198   1.262       .  A
N189        C691   1.427       .  S
N189        O195   1.262       .  A
N189        O196   1.260       .  A
C199        C200   1.402       .  A
C199        C204   1.402       .  A
C199        H209   1.088   1_554  S
C200        C205   1.475   1_554  S
C200        C201   1.405       .  A
C201        N206   1.429       .  S
C201        C202   1.395       .  A
C202        C203   1.405       .  A
C202        H207   1.088       .  S
C203        C204   1.413       .  A
C204        N208   1.429       .  S
C205        C210   1.404       .  A
C205        C214   1.398       .  A
N206        O221   1.262       .  A
N206        O222   1.262       .  A
N208        O219   1.262       .  A
N208        O220   1.262       .  A
C210        N215   1.429       .  S
C210        C717   1.399       .  A
C211        C716   1.399       .  A
C211        C718   1.406       .  A
C211        H216   1.083       .  S
C212        N550   1.450       .  S
C212        C213   1.417       .  A
C212        C717   1.408       .  A
C213        N217   1.427       .  S
C213        C214   1.403       .  A
C214        H218   1.083   1_556  S
N215        O226   1.261   1_556  A
N215        O731   1.262       .  A
N217        O223   1.262       .  A
N217        O224   1.262       .  A
O225        N721   1.262       .  A
C227        C228   1.403       .  A
C227        C232   1.402       .  A
C227        H237   1.088       .  S
C228        C233   1.481       .  S
C228        C229   1.407       .  A
C229        N234   1.427       .  S
C229        C230   1.403       .  A
C230        C231   1.403       .  A
C230        H235   1.088       .  S
C231        C232   1.409       .  A
C232        N236   1.429       .  S
C233        C238   1.409       .  A
C233        C242   1.404       .  A
N234        O249   1.262       .  A
N234        O250   1.262       .  A
N236        O247   1.262       .  A
N236        O248   1.262       .  A
C238        N243   1.428       .  S
C238        C239   1.400       .  A
C239        C240   1.401       .  A
C239        H244   1.084       .  S
C240        C241   1.406       .  A
C241        N245   1.429       .  S
C241        C242   1.403       .  A
C242        H246   1.083       .  S
N243        O253   1.262       .  A
N243        O254   1.262       .  A
N245        O251   1.262       .  A
N245        O252   1.261       .  A
C255        C256   1.400       .  A
C255        C260   1.396       .  A
C255        H265   1.089       .  S
C256        C261   1.489       .  S
C256        C257   1.415       .  A
C257        N768   1.428       .  S
C257        C764   1.403       .  A
C258        C763   1.404       .  A
C258        C765   1.402   1_556  A
C258        H263   1.088       .  S
C259        C260   1.414       .  A
C259        C764   1.401       .  A
C260        N264   1.430       .  S
C261        C266   1.411       .  A
C261        C776   1.407       .  A
N262        C763   1.428       .  S
N262        O277   1.262       .  A
N262        O278   1.262       .  A
N264        O275   1.262       .  A
N264        O276   1.262       .  A
C266        N271   1.430       .  S
C266        C267   1.394       .  A
C267        C268   1.402       .  A
C267        H272   1.088       .  S
C268        C775   1.409       .  A
C269        N273   1.428       .  S
C269        C270   1.404       .  A
C269        C774   1.409       .  A
C270        C767   1.405       .  A
C270        H274   1.086       .  S
N271        O281   1.262       .  A
N271        O282   1.262       .  A
N273        O279   1.262       .  A
N273        O280   1.262       .  A
C283        C284   1.408       .  A
C283        C288   1.401       .  A
C283        H293   1.084       .  S
C284        C289   1.489       .  S
C284        C285   1.415       .  A
C285        N290   1.429       .  S
C285        C286   1.396       .  A
C286        C287   1.397       .  A
C286        H291   1.085       .  S
C287        C288   1.404       .  A
C288        N798   1.429       .  S
C289        C294   1.413       .  A
C289        C298   1.403       .  A
N290        O305   1.262       .  A
N290        O306   1.261       .  A
N292        C794   1.429       .  S
N292        O303   1.262       .  A
N292        O304   1.262       .  A
C294        N299   1.429       .  S
C294        C295   1.397       .  A
C295        C296   1.403       .  A
C295        H300   1.088       .  S
C296        C297   1.415       .  A
C297        N301   1.429       .  S
C297        C298   1.401       .  A
C298        H302   1.087       .  S
N299        O309   1.262       .  A
N299        O310   1.262       .  A
N301        O307   1.262       .  A
N301        O308   1.262       .  A
C311        C312   1.407       .  A
C311        C316   1.406       .  A
C311        H321   1.079       .  S
C312        C317   1.495       .  S
C312        C313   1.410       .  A
C313        N318   1.428       .  S
C313        C314   1.404       .  A
C314        C315   1.405       .  A
C314        H319   1.072       .  S
C315        C316   1.411       .  A
C316        N320   1.428       .  S
C317        C322   1.410       .  A
C317        C326   1.404       .  A
N318        O333   1.262       .  A
N318        O334   1.262       .  A
N320        O837   1.261       .  A
N320        O838   1.262       .  A
C322        N327   1.429       .  S
C322        C323   1.400       .  A
C323        C324   1.407       .  A
C323        H328   1.086       .  S
C324        C325   1.420       .  A
C325        N329   1.429       .  S
C325        C326   1.409       .  A
C326        H330   1.086       .  S
N327        O337   1.262       .  A
N327        O338   1.262       .  A
N329        O335   1.262       .  A
N329        O336   1.262       .  A
O331        N826   1.261       .  A
O332        N826   1.262       .  A
C339        C344   1.402       .  A
C339        C846   1.409       .  A
C339        H349   1.083       .  S
C340        C345   1.497       .  S
C340        C341   1.420       .  A
C340        C845   1.405       .  A
C341        N346   1.430       .  S
C341        C342   1.400       .  A
C342        C343   1.395       .  A
C342        H347   1.085       .  S
C343        C850   1.407       .  A
C344        N348   1.428       .  S
C344        C849   1.403       .  A
C345        C350   1.417       .  A
C345        C354   1.405       .  A
N346        O361   1.262       .  A
N346        O362   1.261       .  A
N348        O359   1.262       .  A
N348        O360   1.262       .  A
C350        N355   1.428       .  S
C350        C351   1.404   1_565  A
C351        C352   1.402       .  A
C351        H356   1.088       .  S
C352        C353   1.409   1_545  A
C353        N357   1.430   1_565  S
C353        C354   1.397       .  A
C354        H358   1.087       .  S
N355        O365   1.262       .  A
N355        O366   1.262       .  A
N357        O363   1.261       .  A
N357        O364   1.262       .  A
C367        C368   1.408       .  A
C367        C372   1.401       .  A
C367        H377   1.083       .  S
C368        C373   1.492       .  S
C368        C369   1.415       .  A
C369        N374   1.430       .  S
C369        C370   1.398       .  A
C370        C371   1.398       .  A
C370        H375   1.085       .  S
C371        C372   1.403       .  A
C372        N376   1.429       .  S
C373        C378   1.415       .  A
C373        C382   1.407       .  A
N374        O389   1.262       .  A
N374        O390   1.262       .  A
N376        O387   1.262       .  A
N376        O388   1.262       .  A
C378        N383   1.429       .  S
C378        C379   1.402       .  A
C379        C380   1.402       .  A
C379        H384   1.089       .  S
C380        C381   1.405       .  A
C381        N385   1.429       .  S
C381        C382   1.398       .  A
C382        H386   1.088       .  S
N383        O393   1.262       .  A
N383        O394   1.262       .  A
N385        O391   1.262       .  A
N385        O392   1.262       .  A
C395        C396   1.405       .  A
C395        C906   1.404       .  A
C395        H405   1.084       .  S
C396        C401   1.497       .  S
C396        C397   1.416       .  A
C397        N402   1.428       .  S
C397        C398   1.408       .  A
C398        C905   1.401       .  A
C398        H403   1.084       .  S
C399        C400   1.406       .  A
C399        C904   1.399       .  A
C400        N404   1.429       .  S
C400        C901   1.401       .  A
C401        C406   1.415       .  A
C401        C410   1.405       .  A
N402        O417   1.262       .  A
N402        O418   1.261       .  A
N404        O415   1.262       .  A
N404        O416   1.261       .  A
C406        N411   1.429       .  S
C406        C407   1.402       .  A
C407        C408   1.402       .  A
C407        H412   1.088       .  S
C408        C409   1.413       .  A
C409        N413   1.429       .  S
C409        C410   1.406       .  A
C410        H414   1.087       .  S
N411        O421   1.262       .  A
N411        O422   1.262       .  A
N413        O419   1.261       .  A
N413        O420   1.262       .  A
C423        C424   1.403       .  A
C423        C428   1.402   1_655  A
C423        H433   1.084       .  S
C424        C429   1.494       .  S
C424        C931   1.418   1_655  A
C425        N430   1.430   1_556  S
C425        C426   1.405       .  A
C425        C930   1.418   1_455  A
C426        C933   1.399       .  A
C426        H431   1.084       .  S
C427        C428   1.411       .  A
C427        C932   1.399       .  A
C428        N432   1.432       .  S
C429        C434   1.415       .  A
C429        C944   1.406       .  A
N430        O445   1.262       .  A
N430        O446   1.262       .  A
N432        O443   1.262   1_455  A
N432        O444   1.262       .  A
C434        N439   1.429       .  S
C434        C435   1.402       .  A
C435        C436   1.397       .  A
C435        H440   1.084       .  S
C436        C943   1.411       .  A
C437        N441   1.430       .  S
C437        C438   1.404       .  A
C437        C942   1.409       .  A
C438        C935   1.407   1_554  A
C438        H442   1.084       .  S
N439        O449   1.262       .  A
N439        O450   1.262       .  A
N441        O447   1.262       .  A
N441        O448   1.262       .  A
C451        C452   1.400       .  A
C451        C456   1.405       .  A
C451        H461   1.087       .  S
C452        C457   1.491       .  S
C452        C453   1.412       .  A
C453        N458   1.428       .  S
C453        C454   1.403       .  A
C454        C455   1.406       .  A
C454        H459   1.087       .  S
C455        C456   1.420       .  A
C456        N460   1.428       .  S
C457        C462   1.413       .  A
C457        C466   1.400       .  A
N458        O473   1.262       .  A
N458        O474   1.262       .  A
N460        O471   1.262       .  A
N460        O472   1.262       .  A
C462        N467   1.428       .  S
C462        C463   1.407       .  A
C463        C464   1.404       .  A
C463        H468   1.088       .  S
C464        C465   1.412       .  A
C465        N469   1.428       .  S
C465        C466   1.402       .  A
C466        H470   1.088       .  S
N467        O477   1.262       .  A
N467        O478   1.262       .  A
N469        O475   1.262       .  A
N469        O476   1.262       .  A
C479        C480   1.403       .  A
C479        C484   1.401       .  A
C479        H489   1.088       .  S
C480        C485   1.486       .  S
C480        C481   1.414       .  A
C481        N486   1.429       .  S
C481        C482   1.392       .  A
C482        C483   1.400       .  A
C482        H487   1.088       .  S
C483        C484   1.413       .  A
C484        N488   1.428       .  S
C485        C490   1.414       .  A
C485        C494   1.404       .  A
N486        O501   1.262       .  A
N486        O502   1.262       .  A
N488        O499   1.262       .  A
N488        O500   1.261       .  A
C490        N495   1.429       .  S
C490        C491   1.397       .  A
C491        C492   1.399       .  A
C491        H496   1.089       .  S
C492        C493   1.405       .  A
C493        N497   1.427       .  S
C493        C494   1.397       .  A
C494        H498   1.088       .  S
N495        O505   1.262       .  A
N495        O506   1.262       .  A
N497        O503   1.262       .  A
N497        O504   1.262       .  A
N507        C508   1.360       .  A
N507        C970   1.443       .  S
C508        C942   1.476       .  S
C509        C510   1.370       .  A
C509        H512   1.082       .  S
C510        C511   1.382       .  A
C510        H513   1.082       .  S
C511        C998   1.476       .  S
N514        C518   1.364       .  A
N514        C515   1.361       .  A
N514        C905   1.443   1_556  S
C515        C858   1.481       .  S
C515        C516   1.382       .  A
C516        C517   1.365       .  A
C516        H519   1.082       .  S
C517        C518   1.383       .  A
C517        H520   1.083       .  S
C518        C877   1.489       .  S
N521        C522   1.363       .  A
N521        C821   1.450       .  S
C522        C765   1.479       .  S
C523        C524   1.369       .  A
C523        H526   1.082       .  S
C524        C525   1.377       .  A
C524        H527   1.082       .  S
C525        C793   1.475       .  S
Fe528       O544   2.064       .  S
Fe528       O534   2.066       .  S
Fe528       O541   2.057       .  S
Fe528       O533   2.074       .  S
Fe528       O539   1.965       .  S
Fe529       O532   2.072       .  S
Fe529       O536   2.077       .  S
Fe529       O540   2.090       .  S
Fe529       O545   2.073       .  S
Fe529       O539   1.966       .  S
Fe530       O548   2.083       .  S
Fe530       O535   2.078       .  S
Fe530       O542   2.064       .  S
Fe530       O531   2.091       .  S
Fe530       O539   1.963       .  S
O531        C538   1.276       .  A
O532        C546   1.275       .  A
O533        C538   1.269       .  A
O534        C537   1.269       .  A
O535        C547   1.268       .  A
O536        C549   1.266       .  A
C537        C989   1.488       .  S
C537        O542   1.270       .  A
C538        C961   1.499       .  S
O540        C543   1.277       .  A
O541        C543   1.273       .  A
C543        C886   1.485       .  S
O544        C549   1.265       .  A
O545        C547   1.269       .  A
C546        C802   1.484       .  S
C546        O548   1.276       .  A
C547        C830   1.502       .  S
C549        C914   1.480       .  S
N550        C554   1.361       .  A
N550        C551   1.363       .  A
C551        C933   1.481       .  S
C551        C552   1.384       .  A
C552        C553   1.367       .  A
C552        H555   1.082       .  S
C553        C554   1.377       .  A
C553        H556   1.082       .  S
C554        C746   1.473       .  S
N557        C558   1.357   1_556  A
N557        C653   1.445       .  S
C558        C849   1.469   1_554  S
C559        C560   1.366       .  A
C559        H562   1.083       .  S
C560        C561   1.379       .  A
C560        H563   1.082       .  S
C561        C690   1.461       .  S
N564        C568   1.364       .  A
N564        C565   1.363       .  A
C565        C774   1.476       .  S
C565        C566   1.380       .  A
C566        C567   1.365       .  A
C566        H569   1.082       .  S
C567        C568   1.382       .  A
C567        H570   1.081       .  S
C568        C606   1.486       .  S
Fe571       O587   2.066       .  S
Fe571       O577   2.067       .  S
Fe571       O584   2.055       .  S
Fe571       O576   2.061       .  S
Fe571       O582   1.960       .  S
Fe572       O575   2.067       .  S
Fe572       O579   2.071       .  S
Fe572       O583   2.068       .  S
Fe572       O588   2.087       .  S
Fe572       O582   1.965       .  S
Fe573       O591   2.069       .  S
Fe573       O578   2.058       .  S
Fe573       O585   2.054       .  S
Fe573       O574   2.081       .  S
Fe573       O582   1.964       .  S
O574        C581   1.267       .  A
O575        C589   1.266       .  A
O576        C581   1.265       .  A
O577        C580   1.273       .  A
O578        C590   1.272       .  A
O579        C592   1.271       .  A
C580        C681   1.483       .  S
C580        O585   1.272       .  A
C581        C662   1.486       .  S
O583        C586   1.271       .  A
O584        C586   1.270       .  A
C586        C597   1.475       .  S
O587        C592   1.268       .  A
O588        C590   1.275       .  A
C589        C709   1.480       .  S
C589        O591   1.268       .  A
C590        C737   1.477       .  S
C592        C634   1.487       .  S
C593        C594   1.403       .  A
C593        C598   1.399       .  A
C593        H603   1.087       .  S
C594        C599   1.476       .  S
C594        C595   1.405       .  A
C595        N600   1.428       .  S
C595        C596   1.396       .  A
C596        C597   1.405       .  A
C596        H601   1.087       .  S
C597        C598   1.411       .  A
C598        N602   1.429       .  S
C599        C604   1.406       .  A
C599        C608   1.397       .  A
N600        O615   1.262       .  A
N600        O616   1.262       .  A
N602        O613   1.262       .  A
N602        O614   1.262       .  A
C604        N609   1.429       .  S
C604        C605   1.404       .  A
C605        C606   1.407       .  A
C605        H610   1.083       .  S
C606        C607   1.415       .  A
C607        N611   1.430       .  S
C607        C608   1.396       .  A
C608        H612   1.085       .  S
N609        O619   1.261       .  A
N609        O620   1.262       .  A
N611        O617   1.262       .  A
N611        O618   1.262       .  A
C621        C622   1.404       .  A
C621        H631   1.089       .  S
C622        C627   1.490       .  S
C622        C623   1.410       .  A
C623        N628   1.429       .  S
C623        C624   1.396       .  A
C624        C625   1.404       .  A
C624        H629   1.089       .  S
C626        N630   1.427       .  S
C627        C632   1.412       .  A
C627        C636   1.403       .  A
N628        O643   1.262       .  A
N628        O644   1.262       .  A
N630        O641   1.262       .  A
N630        O642   1.262       .  A
C632        N637   1.429       .  S
C632        C633   1.400       .  A
C633        C634   1.405       .  A
C633        H638   1.088       .  S
C634        C635   1.416       .  A
C635        N639   1.429       .  S
C635        C636   1.401       .  A
C636        H640   1.088       .  S
N637        O647   1.262       .  A
N637        O648   1.262       .  A
N639        O645   1.262       .  A
N639        O646   1.262       .  A
C649        C650   1.397       .  A
C649        C654   1.399       .  A
C649        H659   1.084       .  S
C650        C655   1.482       .  S
C650        C651   1.410       .  A
C651        N656   1.428       .  S
C651        C652   1.407       .  A
C652        C653   1.404       .  A
C652        H657   1.083       .  S
C653        C654   1.415       .  A
C654        N658   1.430       .  S
C655        C660   1.409       .  A
C655        C664   1.400       .  A
N656        O671   1.262       .  A
N656        O672   1.261       .  A
N658        O669   1.262       .  A
N658        O670   1.261       .  A
C660        N665   1.429       .  S
C660        C661   1.402       .  A
C661        C662   1.405       .  A
C661        H666   1.087       .  S
C662        C663   1.415       .  A
C663        N667   1.428       .  S
C663        C664   1.402       .  A
C664        H668   1.087       .  S
N665        O675   1.262       .  A
N665        O676   1.262       .  A
N667        O673   1.262       .  A
N667        O674   1.262       .  A
C677        C678   1.398       .  A
C677        C682   1.389       .  A
C677        H687   1.088       .  S
C678        C683   1.473       .  S
C678        C679   1.407       .  A
C679        N684   1.429       .  S
C679        C680   1.400       .  A
C680        C681   1.409       .  A
C680        H685   1.086       .  S
C681        C682   1.416       .  A
C682        N686   1.428       .  S
C683        C688   1.410       .  A
C683        C692   1.406       .  A
N684        O699   1.262       .  A
N684        O700   1.262       .  A
N686        O697   1.262       .  A
N686        O698   1.261       .  A
C688        N693   1.429       .  S
C688        C689   1.394       .  A
C689        C690   1.399       .  A
C689        H694   1.088       .  S
C690        C691   1.402       .  A
C691        C692   1.396       .  A
C692        H696   1.087       .  S
N693        O703   1.262       .  A
N693        O704   1.262       .  A
N695        O701   1.262   1_556  A
N695        O702   1.262       .  A
C705        C706   1.403       .  A
C705        C710   1.403       .  A
C705        H715   1.088       .  S
C706        C711   1.478       .  S
C706        C707   1.405       .  A
C707        N712   1.428       .  S
C707        C708   1.397       .  A
C708        C709   1.405       .  A
C708        H713   1.088       .  S
C709        C710   1.413       .  A
C710        N714   1.429       .  S
C711        C716   1.405       .  A
C711        C720   1.399       .  A
N712        O727   1.262       .  A
N712        O728   1.262       .  A
N714        O725   1.262       .  A
N714        O726   1.262       .  A
C716        N721   1.429       .  S
C717        H722   1.079       .  S
C718        C719   1.416       .  A
C719        N723   1.427       .  S
C719        C720   1.404       .  A
C720        H724   1.085       .  S
N721        O732   1.262       .  A
N723        O729   1.262       .  A
N723        O730   1.262       .  A
C733        C734   1.402       .  A
C733        C738   1.399       .  A
C733        H743   1.088       .  S
C734        C739   1.481       .  S
C734        C735   1.409       .  A
C735        N740   1.428       .  S
C735        C736   1.401       .  A
C736        C737   1.404       .  A
C736        H741   1.087       .  S
C737        C738   1.411       .  A
C738        N742   1.429       .  S
C739        C744   1.410       .  A
C739        C748   1.406       .  A
N740        O755   1.262       .  A
N740        O756   1.262       .  A
N742        O753   1.262       .  A
N742        O754   1.262       .  A
C744        N749   1.429       .  S
C744        C745   1.398       .  A
C745        C746   1.400       .  A
C745        H750   1.084       .  S
C746        C747   1.404       .  A
C747        N751   1.429       .  S
C747        C748   1.402       .  A
C748        H752   1.083       .  S
N749        O759   1.262       .  A
N749        O760   1.262       .  A
N751        O757   1.262       .  A
N751        O758   1.261       .  A
C761        C762   1.398       .  A
C761        C766   1.393       .  A
C761        H771   1.088       .  S
C762        C767   1.483       .  S
C762        C763   1.413       .  A
C764        H769   1.089       .  S
C765        C766   1.414   1_554  A
C766        N770   1.430   1_556  S
C767        C772   1.410       .  A
N768        O783   1.262       .  A
N768        O784   1.262       .  A
N770        O781   1.261   1_554  A
N770        O782   1.262       .  A
C772        N777   1.429       .  S
C772        C773   1.395       .  A
C773        C774   1.402       .  A
C773        H778   1.087       .  S
C775        N779   1.428       .  S
C775        C776   1.406       .  A
C776        H780   1.087       .  S
N777        O787   1.262       .  A
N777        O788   1.262       .  A
N779        O785   1.262       .  A
N779        O786   1.262       .  A
C789        C790   1.408       .  A
C789        C794   1.404       .  A
C789        H799   1.083       .  S
C790        C795   1.490       .  S
C790        C791   1.413       .  A
C791        N796   1.428       .  S
C791        C792   1.399       .  A
C792        C793   1.399       .  A
C792        H797   1.083       .  S
C793        C794   1.405       .  A
C795        C800   1.413       .  A
C795        C804   1.405       .  A
N796        O811   1.262       .  A
N796        O812   1.261       .  A
N798        O809   1.261       .  A
N798        O810   1.262       .  A
C800        N805   1.429       .  S
C800        C801   1.399       .  A
C801        C802   1.403       .  A
C801        H806   1.087       .  S
C802        C803   1.413       .  A
C803        N807   1.429       .  S
C803        C804   1.404       .  A
C804        H808   1.087       .  S
N805        O815   1.262       .  A
N805        O816   1.262       .  A
N807        O813   1.262       .  A
N807        O814   1.262       .  A
C817        C818   1.406       .  A
C817        C822   1.408       .  A
C817        H827   1.088       .  S
C818        C823   1.494       .  S
C818        C819   1.410       .  A
C819        N824   1.429       .  S
C819        C820   1.399   1_556  A
C820        C821   1.404       .  A
C820        H825   1.088       .  S
C821        C822   1.413   1_554  A
C822        N826   1.428       .  S
C823        C828   1.411       .  A
C823        C832   1.401       .  A
N824        O839   1.262       .  A
N824        O840   1.262   1_556  A
C828        N833   1.429       .  S
C828        C829   1.404       .  A
C829        C830   1.409       .  A
C829        H834   1.087       .  S
C830        C831   1.420       .  A
C831        N835   1.428       .  S
C831        C832   1.404       .  A
C832        H836   1.088       .  S
N833        O843   1.262       .  A
N833        O844   1.262       .  A
N835        O841   1.262       .  A
N835        O842   1.262       .  A
C845        C850   1.401       .  A
C845        H855   1.083       .  S
C846        C851   1.497       .  S
C846        C847   1.418       .  A
C847        N852   1.430       .  S
C847        C848   1.400       .  A
C848        C849   1.399       .  A
C848        H853   1.085       .  S
C850        N854   1.428       .  S
C851        C856   1.413       .  A
C851        C860   1.410   1_556  A
N852        O867   1.262   1_556  A
N852        O868   1.261       .  A
N854        O865   1.262       .  A
N854        O866   1.260       .  A
C856        N861   1.429       .  S
C856        C857   1.397   1_565  A
C857        C858   1.403       .  A
C857        H862   1.089       .  S
C858        C859   1.407   1_556  A
C859        N863   1.428       .  S
C859        C860   1.405   1_545  A
C860        H864   1.087       .  S
N861        O871   1.262       .  A
N861        O872   1.262       .  A
N863        O869   1.262       .  A
N863        O870   1.262       .  A
C873        C874   1.401       .  A
C873        C878   1.403       .  A
C873        H883   1.085       .  S
C874        C879   1.489       .  S
C874        C875   1.412       .  A
C875        N880   1.430       .  S
C875        C876   1.401       .  A
C876        C877   1.403       .  A
C876        H881   1.085       .  S
C877        C878   1.418       .  A
C878        N882   1.439       .  S
C879        C884   1.412       .  A
C879        C888   1.405       .  A
N880        O895   1.262       .  A
N880        O896   1.262       .  A
N882        O893   1.263       .  A
N882        O894   1.262       .  A
C884        N889   1.429       .  S
C884        C885   1.401       .  A
C885        C886   1.407       .  A
C885        H890   1.088       .  S
C886        C887   1.410       .  A
C887        N891   1.428       .  S
C887        C888   1.400       .  A
C888        H892   1.088       .  S
N889        O899   1.262       .  A
N889        O900   1.262       .  A
N891        O897   1.262       .  A
N891        O898   1.262       .  A
C901        C902   1.408       .  A
C901        H911   1.083       .  S
C902        C907   1.501       .  S
C902        C903   1.417       .  A
C903        N908   1.428       .  S
C903        C904   1.405       .  A
C904        H909   1.084       .  S
C905        C906   1.411       .  A
C906        N910   1.433       .  S
C907        C912   1.416       .  A
C907        C916   1.410       .  A
N908        O923   1.262       .  A
N908        O924   1.262       .  A
N910        O921   1.262       .  A
N910        O922   1.262       .  A
C912        N917   1.429       .  S
C912        C913   1.400       .  A
C913        C914   1.399       .  A
C913        H918   1.088       .  S
C914        C915   1.410       .  A
C915        N919   1.429       .  S
C915        C916   1.407       .  A
C916        H920   1.087       .  S
N917        O927   1.262       .  A
N917        O928   1.262       .  A
N919        O925   1.262       .  A
N919        O926   1.262       .  A
C929        C930   1.405       .  A
C929        C934   1.401   1_655  A
C929        H939   1.084       .  S
C930        C935   1.496       .  S
C931        N936   1.429       .  S
C931        C932   1.405       .  A
C932        H937   1.084       .  S
C933        C934   1.411       .  A
C934        N938   1.432       .  S
C935        C940   1.417       .  A
N936        O951   1.262       .  A
N936        O952   1.262       .  A
N938        O949   1.262   1_455  A
N938        O950   1.262       .  A
C940        N945   1.429       .  S
C940        C941   1.402   1_556  A
C941        C942   1.396       .  A
C941        H946   1.083       .  S
C943        N947   1.430       .  S
C943        C944   1.406       .  A
C944        H948   1.084       .  S
N945        O955   1.262       .  A
N945        O956   1.262       .  A
N947        O953   1.262       .  A
N947        O954   1.262       .  A
C957        C958   1.398       .  A
C957        C962   1.403       .  A
C957        H967   1.088       .  S
C958        C963   1.489       .  S
C958        C959   1.411       .  A
C959        N964   1.428       .  S
C959        C960   1.407       .  A
C960        C961   1.407       .  A
C960        H965   1.087       .  S
C961        C962   1.422       .  A
C962        N966   1.429       .  S
C963        C968   1.412       .  A
C963        C972   1.400       .  A
N964        O979   1.262       .  A
N964        O980   1.262       .  A
N966        O977   1.262       .  A
N966        O978   1.262       .  A
C968        N973   1.428       .  S
C968        C969   1.405   1_556  A
C969        C970   1.403       .  A
C969        H974   1.089       .  S
C970        C971   1.411       .  A
C971        N975   1.428       .  S
C971        C972   1.403   1_554  A
C972        H976   1.089       .  S
N973        O983   1.262       .  A
N973        O984   1.262       .  A
N975        O981   1.262   1_554  A
N975        O982   1.261       .  A
C985        C986   1.402       .  A
C985        C990   1.399       .  A
C985        H995   1.088       .  S
C986        C991   1.481       .  S
C986        C987   1.408       .  A
C987        N992   1.429       .  S
C987        C988   1.396       .  A
C988        C989   1.409       .  A
C988        H993   1.087       .  S
C989        C990   1.414       .  A
C990        N994   1.428       .  S
C991        C996   1.410       .  A
C991       C1000   1.405       .  A
N992       O1007   1.262       .  A
N992       O1008   1.262       .  A
N994       O1005   1.262       .  A
N994       O1006   1.262       .  A
C996       N1001   1.429       .  S
C996        C997   1.392       .  A
C997        C998   1.400       .  A
C997       H1002   1.089       .  S
C998        C999   1.408       .  A
C999       N1003   1.427       .  S
C999       C1000   1.404       .  A
C1000      H1004   1.088       .  S
N1001      O1011   1.262       .  A
N1001      O1012   1.262       .  A
N1003      O1009   1.261       .  A
N1003      O1010   1.262       .  A
