geometry optimzed in LAMMPS
_audit_creation_date              2020-11-30 
_audit_creation_method            'lammps2cif' 
_symmetry_space_group_name_H-M    'P1' 
_symmetry_Int_Tables_number       1 
_symmetry_cell_setting            triclinic 
loop_ 
_symmetry_equiv_pos_as_xyz 
  x,y,z 
_cell_length_a                    52.526256650550586 
_cell_length_b                    53.395913212573156 
_cell_length_c                    30.648223714246157 
_cell_angle_alpha                 89.58266071258596 
_cell_angle_beta                  91.54769636134615 
_cell_angle_gamma                 121.66587971405397 
loop_ 
_atom_site_label 
_atom_site_type_symbol 
_atom_site_fract_x 
_atom_site_fract_y 
_atom_site_fract_z 
_atom_site_charge 
C1          C  0.48723430  0.01808935  0.49999868     0.04180
C2          C  0.46655764  0.48766190  0.50338616    -0.11970
C3          C  0.47589601  0.46755868  0.00012122     0.01680
C4          C  0.00622887  0.47780121  0.99503215    -0.10500
C5          C  0.02749965  0.00809086  0.99385662     0.04170
C6          C  0.01771254  0.02803234  0.49539370    -0.09920
H7          H  0.44313942  0.47954558  0.50836205     0.09760
H8          H  0.01326707  0.46209441  0.99241842     0.07290
H9          H  0.03392237  0.05139627  0.49319826     0.07140
C10         C  0.39835540  0.33970029  0.00401463     0.04180
C11         C  0.39728801  0.32441707  0.46575912    -0.11970
C12         C  0.38134597  0.29354249  0.46436282     0.01680
C13         C  0.36884564  0.27769130  0.00233985    -0.10500
C14         C  0.37102060  0.29227277  0.04109763     0.04170
C15         C  0.38382411  0.32289201  0.04115977    -0.09920
H16         H  0.40904920  0.33633642  0.43700448     0.09760
H17         H  0.35839528  0.25396560  0.00211713     0.07290
H18         H  0.38334775  0.33340834  0.07087104     0.07140
C19         C  0.44672798  0.10123463  0.00331289     0.04180
C20         C  0.44063959  0.11128543  0.46406516    -0.11970
C21         C  0.42889554  0.12960601  0.46454202     0.01680
C22         C  0.42617330  0.14024050  0.00473139    -0.10500
C23         C  0.43042253  0.12922566  0.04392809     0.04170
C24         C  0.44069767  0.10974800  0.04318022    -0.09920
H25         H  0.44349006  0.10348871  0.43316065     0.09760
H26         H  0.41747374  0.15468737  0.00553675     0.07290
H27         H  0.44289969  0.10040075  0.07350828     0.07140
O28         O  0.29380985  0.15151200  0.30838917    -0.84300
O29         O  0.33388899  0.20936931  0.29019415    -0.81350
C30         C  0.35706645  0.21730594  0.31387677     0.99160
O31         O  0.37332752  0.20714574  0.30602821    -0.81380
O32         O  0.38708077  0.16655979  0.28347872    -0.84020
C33         C  0.37206273  0.14594009  0.31012716     1.03690
O34         O  0.34425329  0.12867098  0.30392899    -0.76790
O35         O  0.28587555  0.11043901  0.28080839    -0.76970
C36         C  0.28059897  0.12388554  0.30958669     1.03640
O37         O  0.27750467  0.13923287  0.21647848    -0.84300
O38         O  0.32124353  0.19561004  0.19853307    -0.81360
C39         C  0.34726862  0.21706225  0.19234090     0.99180
O40         O  0.36868828  0.22007208  0.21639892    -0.81390
O41         O  0.37847851  0.17634908  0.19215516    -0.83990
C42         C  0.37503924  0.15130397  0.18799615     1.03650
O43         O  0.35903457  0.13126938  0.21461971    -0.76810
O44         O  0.30303958  0.12079833  0.19090160    -0.76960
C45         C  0.28166599  0.12511161  0.18736480     1.03620
Cr46       Cr  0.30857396  0.17317127  0.25331154     1.93740
Cr47       Cr  0.37402018  0.19044232  0.24934887     1.93210
Cr48       Cr  0.32388403  0.12552290  0.24765281     1.39100
O49         O  0.33556545  0.16319346  0.25013038    -1.22050
C50         C  0.15568868  0.05352772  0.99114434     0.04180
C51         C  0.17199144  0.06501336  0.03093314    -0.11970
C52         C  0.20295481  0.07589306  0.03395947     0.01680
C53         C  0.21735848  0.07564353  0.99604988    -0.10500
C54         C  0.20224823  0.06777407  0.45556613     0.04170
C55         C  0.17119767  0.05517070  0.45352654    -0.09750
H56         H  0.16052739  0.06594726  0.05913055     0.09760
H57         H  0.24118035  0.08420015  0.99714163     0.07290
H58         H  0.15947793  0.04799146  0.42221144     0.07140
C59         C  0.25837791  0.10743197  0.34429519    -0.04290
C60         C  0.25474019  0.08121260  0.36248508    -0.01410
C61         C  0.23537839  0.06736305  0.39771136     0.03580
C62         C  0.21998448  0.07978943  0.41551619    -0.04290
C63         C  0.22368944  0.10590790  0.39767377    -0.01390
C64         C  0.24173358  0.11896567  0.36131367     0.03580
C65         C  0.27204775  0.06922578  0.34688402     0.38230
C66         C  0.21075298  0.12075650  0.41888874     0.38220
C67         C  0.24269880  0.14419671  0.34134820     0.36640
C68         C  0.23202684  0.04087729  0.41672909     0.36640
N69         N  0.24336008  0.16424923  0.32543883    -0.38180
N70         N  0.22936467  0.01977980  0.43204364    -0.38180
N71         N  0.20103537  0.13295765  0.43631852    -0.37620
N72         N  0.28596262  0.05970296  0.33471118    -0.37620
C73         C  0.26087432  0.11318008  0.14919260    -0.04290
C74         C  0.23210099  0.08809200  0.15339260    -0.01410
C75         C  0.21269699  0.07594285  0.11639859     0.03580
C76         C  0.22141877  0.08986118  0.07510157    -0.04290
C77         C  0.24934298  0.11695427  0.07267183    -0.01390
C78         C  0.26954222  0.12748274  0.10876269     0.03580
C79         C  0.22283918  0.07433308  0.19582285     0.38230
C80         C  0.25711877  0.13486436  0.03365343     0.38220
C81         C  0.29950388  0.15292348  0.10405836     0.36640
C82         C  0.18416738  0.04897967  0.12183091     0.36640
N83         N  0.32350715  0.17292045  0.09991102    -0.38180
N84         N  0.16154396  0.02770231  0.12848156    -0.38180
N85         N  0.26346703  0.14924426  0.50267782    -0.37620
N86         N  0.21554494  0.06354725  0.22973636    -0.37620
C87         C  0.39033498  0.14533282  0.15269440    -0.04290
C88         C  0.37662681  0.11690659  0.13337145    -0.01410
C89         C  0.39088929  0.11128380  0.09987482     0.03580
C90         C  0.41853686  0.13407467  0.08432787    -0.04290
C91         C  0.43256307  0.16222280  0.10379178    -0.01390
C92         C  0.41877838  0.16781284  0.13814757     0.03580
C93         C  0.34706099  0.09357857  0.14603130     0.38230
C94         C  0.46125909  0.18546964  0.08824742     0.38220
C95         C  0.43432740  0.19666494  0.15877026     0.36640
C96         C  0.37643084  0.08218970  0.08001444     0.36640
N97         N  0.44679602  0.21969954  0.17515912    -0.38180
N98         N  0.36503930  0.05903857  0.06413219    -0.38180
N99         N  0.48413636  0.20397192  0.07576388    -0.37620
N100        N  0.32347304  0.07489985  0.15589953    -0.37620
C101        C  0.38708170  0.14189423  0.34906238    -0.04290
C102        C  0.37201530  0.13305528  0.38898803    -0.01410
C103        C  0.38493992  0.12721341  0.42528665     0.03580
C104        C  0.41483271  0.13382772  0.42427135    -0.04290
C105        C  0.43051645  0.14394534  0.38487433    -0.01390
C106        C  0.41632994  0.14695259  0.34705035     0.03580
C107        C  0.34393749  0.13174270  0.39414307     0.38230
C108        C  0.46139160  0.15172098  0.38315629     0.38220
C109        C  0.43169619  0.15462063  0.30593037     0.36640
C110        C  0.36670820  0.11339875  0.46316387     0.36640
N111        N  0.44382027  0.16059008  0.27304100    -0.38180
N112        N  0.35200069  0.10236171  0.99314193    -0.38180
N113        N  0.48601413  0.15789025  0.38158766    -0.37620
N114        N  0.32190777  0.13120069  0.39919095    -0.37620
C115        C  0.36445119  0.27574200  0.08259092    -0.04290
C116        C  0.33482885  0.25517412  0.09384795    -0.01410
C117        C  0.32895228  0.23666481  0.13025769     0.03580
C118        C  0.35298437  0.23873162  0.15629148    -0.04290
C119        C  0.38280343  0.26090633  0.14575977    -0.01390
C120        C  0.38834131  0.27831587  0.10830900     0.03580
C121        C  0.31034996  0.25244567  0.06683454     0.38230
C122        C  0.40838965  0.26615183  0.17257896     0.38220
C123        C  0.41887640  0.29729416  0.09414963     0.36640
C124        C  0.29794241  0.21542339  0.13984593     0.36640
N125        N  0.44316452  0.31196836  0.08252558    -0.38180
N126        N  0.27314547  0.19843315  0.14704373    -0.38180
N127        N  0.42894194  0.27070135  0.19389022    -0.37620
N128        N  0.29089393  0.25024557  0.04512512    -0.37620
C129        C  0.36532073  0.23894157  0.35087203    -0.04290
C130        C  0.35179137  0.25602899  0.35377161    -0.01410
C131        C  0.35751997  0.27425719  0.39046929     0.03580
C132        C  0.37805754  0.27715989  0.42351786    -0.04290
C133        C  0.39306723  0.26189520  0.41973636    -0.01390
C134        C  0.38645743  0.24249565  0.38426360     0.03580
C135        C  0.33199744  0.25537119  0.31918706     0.38230
C136        C  0.41508601  0.26586605  0.45311067     0.38220
C137        C  0.40103649  0.22573676  0.38369773     0.36640
C138        C  0.34089593  0.28878184  0.39540634     0.36640
N139        N  0.41281564  0.21251518  0.38364520    -0.38180
N140        N  0.32722044  0.29991808  0.39939868    -0.38180
N141        N  0.43263048  0.26914552  0.47976726    -0.37620
N142        N  0.31624526  0.25499787  0.29169820    -0.37620
C143        C  0.06012286  0.01891931  0.99156916    -0.04290
C144        C  0.07780965  0.03889771  0.45883764    -0.01410
C145        C  0.10899415  0.05064562  0.45866460     0.03580
C146        C  0.12252957  0.04068770  0.98910835    -0.04290
C147        C  0.10411019  0.01826310  0.01847318    -0.01390
C148        C  0.07371971  0.00901037  0.02181989     0.03580
C149        C  0.06384323  0.04681806  0.42439967     0.38230
C150        C  0.11558075  0.00256334  0.04241251     0.38220
C151        C  0.05700038  0.99002879  0.05761740     0.36640
C152        C  0.12663759  0.07273403  0.42659793     0.36640
N153        N  0.04422883  0.47506422  0.08662227    -0.38180
N154        N  0.13988104  0.08994615  0.40005941    -0.38180
N155        N  0.12395779  0.98897067  0.06032242    -0.37620
N156        N  0.05272914  0.05305927  0.39682719    -0.37620
C157        C  0.41593941  0.37300494  0.00528728    -0.04290
C158        C  0.43477789  0.38915402  0.04188047    -0.01410
C159        C  0.45228594  0.42019147  0.04114249     0.03580
C160        C  0.45397800  0.43543818  0.00269383    -0.04290
C161        C  0.43559086  0.41986322  0.46634617    -0.01390
C162        C  0.41527668  0.38921279  0.46864751     0.03580
C163        C  0.43749311  0.37466112  0.08032192     0.38230
C164        C  0.43853172  0.43514699  0.42569880     0.38220
C165        C  0.39318099  0.37496314  0.43351659     0.36640
C166        C  0.46838074  0.43660810  0.08034491     0.36640
N167        N  0.37577269  0.36420221  0.40508209    -0.38180
N168        N  0.48061647  0.44956750  0.11194447    -0.38180
N169        N  0.44117587  0.44696776  0.39282835    -0.37620
N170        N  0.44001314  0.36408139  0.11193733    -0.37620
C171        C  0.47694556  0.03947858  0.00101239    -0.04290
C172        C  0.49111670  0.06433654  0.02925331    -0.01410
C173        C  0.48222734  0.08512977  0.02841465     0.03580
C174        C  0.45712215  0.07994540  0.00261507    -0.04290
C175        C  0.44184815  0.05422307  0.47635910    -0.01390
C176        C  0.45272344  0.03513987  0.47366068     0.03580
C177        C  0.01427085  0.06826436  0.06034047     0.38230
C178        C  0.41420909  0.04656953  0.45305792     0.38220
C179        C  0.43937482  0.01166897  0.44130820     0.36640
C180        C  0.99949786  0.11224241  0.05347640     0.36640
N181        N  0.42840613  0.99323865  0.41508130    -0.38180
N182        N  0.01332289  0.13388225  0.07337028    -0.38180
N183        N  0.39216372  0.04039856  0.43449704    -0.37620
N184        N  0.03273981  0.07143516  0.08519506    -0.37620
C185        C  0.48726687  0.01809035  0.99999933     0.04180
C186        C  0.46656173  0.48767267  0.00338730    -0.11970
C187        C  0.47589398  0.46754937  0.50012090     0.01680
C188        C  0.00623254  0.47780938  0.49503292    -0.10500
C189        C  0.02750985  0.00808901  0.49385448     0.04170
C190        C  0.01770107  0.02803330  0.99539317    -0.09920
H191        H  0.44314385  0.47955776  0.00836363     0.09760
H192        H  0.01326968  0.46210179  0.49241866     0.07290
H193        H  0.03391021  0.05139736  0.99319735     0.07140
C194        C  0.39836387  0.33968949  0.50401172     0.04180
C195        C  0.39728056  0.32442769  0.96576269    -0.11970
C196        C  0.38133713  0.29355315  0.96436606     0.01680
C197        C  0.36885704  0.27768059  0.50233783    -0.10500
C198        C  0.37103256  0.29226216  0.54109607     0.04170
C199        C  0.38383491  0.32288122  0.54115791    -0.09920
H200        H  0.40904385  0.33634681  0.93700917     0.09760
H201        H  0.35840712  0.25395496  0.50211516     0.07290
H202        H  0.38335926  0.33339763  0.57086958     0.07140
C203        C  0.44672558  0.10125655  0.50331440     0.04180
C204        C  0.44063768  0.11126033  0.96406356    -0.11970
C205        C  0.42888880  0.12957678  0.96454090     0.01680
C206        C  0.42618136  0.14027088  0.50473256    -0.10500
C207        C  0.43042665  0.12925286  0.54392906     0.04170
C208        C  0.44069722  0.10977169  0.54318116    -0.09920
H209        H  0.44349005  0.10346540  0.93315873     0.09760
H210        H  0.41748474  0.15472020  0.50553791     0.07290
H211        H  0.44289534  0.10042164  0.57350896     0.07140
O212        O  0.29380423  0.15151071  0.80839892    -0.84300
O213        O  0.33388458  0.20936982  0.79020705    -0.81350
C214        C  0.35705866  0.21730472  0.81389701     0.99160
O215        O  0.37331846  0.20714180  0.80605692    -0.81380
O216        O  0.38707912  0.16656110  0.78350310    -0.84020
C217        C  0.37205992  0.14593629  0.81014383     1.03690
O218        O  0.34425076  0.12866836  0.80394198    -0.76790
O219        O  0.28587465  0.11043901  0.78081817    -0.76970
C220        C  0.28059476  0.12388413  0.80959500     1.03640
O221        O  0.27750466  0.13923324  0.71648833    -0.84300
O222        O  0.32124635  0.19560943  0.69854421    -0.81360
C223        C  0.34727156  0.21706333  0.69235828     0.99180
O224        O  0.36868800  0.22007720  0.71642867    -0.81390
O225        O  0.37848341  0.17635914  0.69218110    -0.83990
C226        C  0.37504341  0.15131430  0.68801452     1.03650
O227        O  0.35903771  0.13127626  0.71463318    -0.76810
O228        O  0.30304348  0.12080342  0.69091175    -0.76960
C229        C  0.28166868  0.12511460  0.68737381     1.03620
Cr230      Cr  0.30857211  0.17317142  0.75332315     1.93740
Cr231      Cr  0.37401896  0.19044537  0.74937588     1.93210
Cr232      Cr  0.32388469  0.12552501  0.74766495     1.39100
O233        O  0.33556462  0.16319483  0.75014828    -1.22050
C234        C  0.15569949  0.05353074  0.49114373     0.04180
C235        C  0.17200117  0.06501646  0.53093313    -0.11970
C236        C  0.20296487  0.07589790  0.53396075     0.01680
C237        C  0.21736993  0.07565031  0.49605145    -0.10500
C238        C  0.20223617  0.06776768  0.95556508     0.04170
C239        C  0.17118578  0.05516598  0.95352659    -0.09750
H240        H  0.16053590  0.06594895  0.55913003     0.09760
H241        H  0.24119202  0.08420805  0.49714398     0.07290
H242        H  0.15946551  0.04798682  0.92221189     0.07140
C243        C  0.25837083  0.10742856  0.84429965    -0.04290
C244        C  0.25473134  0.08120802  0.86248782    -0.01410
C245        C  0.23536730  0.06735708  0.89771145     0.03580
C246        C  0.21997251  0.07978293  0.91551508    -0.04290
C247        C  0.22367839  0.10590193  0.89767336    -0.01390
C248        C  0.24172483  0.11896113  0.86131580     0.03580
C249        C  0.27203912  0.06922115  0.84688783     0.38230
C250        C  0.21074101  0.12075002  0.91888728     0.38220
C251        C  0.24269070  0.14419254  0.84135056     0.36640
C252        C  0.23201451  0.04087054  0.91672811     0.36640
N253        N  0.24335242  0.16424533  0.82544136    -0.38180
N254        N  0.22935136  0.01977243  0.93204180    -0.38180
N255        N  0.20102278  0.13295085  0.93631633    -0.37620
N256        N  0.28595412  0.05969825  0.83471596    -0.37620
C257        C  0.26087894  0.11318354  0.64919953    -0.04290
C258        C  0.23210582  0.08809472  0.65339657    -0.01410
C259        C  0.21270384  0.07594576  0.61640054     0.03580
C260        C  0.22142722  0.08986518  0.57510440    -0.04290
C261        C  0.24935118  0.11695880  0.57267745    -0.01390
C262        C  0.26954867  0.12748692  0.60877036     0.03580
C263        C  0.22284227  0.07433469  0.69582583     0.38230
C264        C  0.25712840  0.13486990  0.53366001     0.38220
C265        C  0.29951048  0.15292793  0.60406882     0.36640
C266        C  0.18417466  0.04898157  0.62183000     0.36640
N267        N  0.32351398  0.17292496  0.59992355    -0.38180
N268        N  0.16155145  0.02770336  0.62847829    -0.38180
N269        N  0.26345625  0.14923786  0.00267041    -0.37620
N270        N  0.21554667  0.06354797  0.72973856    -0.37620
C271        C  0.39033857  0.14534747  0.65270752    -0.04290
C272        C  0.37662790  0.11692478  0.63337242    -0.01410
C273        C  0.39088928  0.11130646  0.59986928     0.03580
C274        C  0.41853823  0.13409869  0.58432805    -0.04290
C275        C  0.43256623  0.16224368  0.60380239    -0.01390
C276        C  0.41878279  0.16782883  0.63816528     0.03580
C277        C  0.34706099  0.09359619  0.64602721     0.38230
C278        C  0.46126290  0.18549209  0.58826235     0.38220
C279        C  0.43433433  0.19667679  0.65880094     0.36640
C280        C  0.37642862  0.08221568  0.57999713     0.36640
N281        N  0.44680530  0.21970800  0.67520039    -0.38180
N282        N  0.36503536  0.05906728  0.56410532    -0.38180
N283        N  0.48414061  0.20399580  0.57578228    -0.37620
N284        N  0.32347218  0.07491697  0.65589128    -0.37620
C285        C  0.38707719  0.14188172  0.84907342    -0.04290
C286        C  0.37200888  0.13303319  0.88899697    -0.01410
C287        C  0.38493183  0.12718278  0.92528875     0.03580
C288        C  0.41482499  0.13379848  0.92427126    -0.04290
C289        C  0.43050949  0.14392237  0.88487577    -0.01390
C290        C  0.41632450  0.14693811  0.84705688     0.03580
C291        C  0.34393088  0.13171930  0.89415780     0.38230
C292        C  0.46138375  0.15169572  0.88315412     0.38220
C293        C  0.43169122  0.15461277  0.80593711     0.36640
C294        C  0.36669858  0.11335852  0.96316148     0.36640
N295        N  0.44381561  0.16058733  0.77304780    -0.38180
N296        N  0.35201118  0.10240986  0.49314766    -0.38180
N297        N  0.48600550  0.15786291  0.88158246    -0.37620
N298        N  0.32190094  0.13117610  0.89920989    -0.37620
C299        C  0.36446192  0.27573193  0.58259020    -0.04290
C300        C  0.33483890  0.25516970  0.59385132    -0.01410
C301        C  0.32896023  0.23666488  0.63026738     0.03580
C302        C  0.35299086  0.23872928  0.65630197    -0.04290
C303        C  0.38281118  0.26089674  0.64576346    -0.01390
C304        C  0.38835083  0.27830347  0.60830873     0.03580
C305        C  0.31036123  0.25244282  0.56683665     0.38230
C306        C  0.40839680  0.26613682  0.67257903     0.38220
C307        C  0.41888607  0.29727757  0.59414740     0.36640
C308        C  0.29794960  0.21543087  0.63986232     0.36640
N309        N  0.44317424  0.31194883  0.58252208    -0.38180
N310        N  0.27315208  0.19844637  0.64706560    -0.38180
N311        N  0.42894878  0.27068226  0.69388743    -0.37620
N312        N  0.29090615  0.25024387  0.54512614    -0.37620
C313        C  0.36531175  0.23894275  0.85088845    -0.04290
C314        C  0.35178223  0.25603046  0.85378160    -0.01410
C315        C  0.35751251  0.27426353  0.89047367     0.03580
C316        C  0.37805083  0.27716972  0.92352329    -0.04290
C317        C  0.39306048  0.26190461  0.91974803    -0.01390
C318        C  0.38644934  0.24250057  0.88428116     0.03580
C319        C  0.33198559  0.25536732  0.81919700     0.38230
C320        C  0.41508038  0.26587957  0.95312320     0.38220
C321        C  0.40102741  0.22574054  0.88372324     0.36640
C322        C  0.34088992  0.28879027  0.89540386     0.36640
N323        N  0.41280521  0.21251757  0.88367682    -0.38180
N324        N  0.32721593  0.29992855  0.89939064    -0.38180
N325        N  0.43262580  0.26916248  0.97978043    -0.37620
N326        N  0.31623105  0.25498969  0.79170831    -0.37620
C327        C  0.06013283  0.01891682  0.49156538    -0.04290
C328        C  0.07779968  0.03889832  0.95883964    -0.01410
C329        C  0.10898388  0.05064443  0.95866538     0.03580
C330        C  0.12254019  0.04068869  0.48910639    -0.04290
C331        C  0.10412105  0.01826188  0.51846842    -0.01390
C332        C  0.07372996  0.00900705  0.52181426     0.03580
C333        C  0.06383345  0.04681836  0.92440095     0.38230
C334        C  0.11559295  0.00256272  0.54240617     0.38220
C335        C  0.05701039  0.99002261  0.55760918     0.36640
C336        C  0.12662715  0.07273034  0.92659565     0.36640
N337        N  0.04423188  0.47507067  0.58662160    -0.38180
N338        N  0.13987021  0.08994027  0.90005442    -0.38180
N339        N  0.12397136  0.98897075  0.56031477    -0.37620
N340        N  0.05271950  0.05305933  0.89682792    -0.37620
C341        C  0.41594586  0.37299412  0.50528415    -0.04290
C342        C  0.43478529  0.38914371  0.54187619    -0.01410
C343        C  0.45228929  0.42018136  0.54114022     0.03580
C344        C  0.45397788  0.43542828  0.50269327    -0.04290
C345        C  0.43559108  0.41987379  0.96634635    -0.01390
C346        C  0.41527385  0.38922405  0.96864869     0.03580
C347        C  0.43750636  0.37465092  0.58031340     0.38230
C348        C  0.43853499  0.43515746  0.92569786     0.38220
C349        C  0.39317847  0.37497556  0.93351702     0.36640
C350        C  0.46838308  0.43659786  0.58034316     0.36640
N351        N  0.37577030  0.36421522  0.90508223    -0.38180
N352        N  0.48061770  0.44955702  0.61194339    -0.38180
N353        N  0.44118159  0.44697823  0.89282670    -0.37620
N354        N  0.44003104  0.36407065  0.61192484    -0.37620
C355        C  0.47691663  0.03948016  0.50101720    -0.04290
C356        C  0.49109280  0.06433766  0.52925874    -0.01410
C357        C  0.48221245  0.08513755  0.52841848     0.03580
C358        C  0.45711057  0.07996036  0.50261741    -0.04290
C359        C  0.44186651  0.05420852  0.97635502    -0.01390
C360        C  0.45275063  0.03513270  0.97365489     0.03580
C361        C  0.01428692  0.06826436  0.56034398     0.38230
C362        C  0.41422507  0.04654720  0.95305427     0.38220
C363        C  0.43940915  0.01166350  0.94129943     0.36640
C364        C  0.99951983  0.11224665  0.55348026     0.36640
N365        N  0.42844630  0.99323458  0.91506995    -0.38180
N366        N  0.01334706  0.13388653  0.57337339    -0.38180
N367        N  0.39217776  0.04036977  0.93449365    -0.37620
N368        N  0.03275563  0.07143354  0.58519780    -0.37620
C369        C  0.48723671  0.51808075  0.49998420     0.04180
C370        C  0.46655774  0.98767055  0.50341083    -0.11970
C371        C  0.47592949  0.96756054  0.00014260     0.01680
C372        C  0.00621697  0.97780161  0.99504030    -0.10500
C373        C  0.02751366  0.50809016  0.99385387     0.04170
C374        C  0.01772331  0.52804347  0.49539112    -0.09920
H375        H  0.44314050  0.97955310  0.50839803     0.09760
H376        H  0.01325665  0.96209609  0.99242387     0.07290
H377        H  0.03393480  0.55140748  0.49320286     0.07140
C378        C  0.39838411  0.83970107  0.00401206     0.04180
C379        C  0.39728214  0.82442745  0.46576234    -0.11970
C380        C  0.38133810  0.79355283  0.46436339     0.01680
C381        C  0.36885939  0.77769093  0.00233442    -0.10500
C382        C  0.37103756  0.79227357  0.04109255     0.04170
C383        C  0.38384841  0.82289380  0.04115569    -0.09920
H384        H  0.40904594  0.83634746  0.43700965     0.09760
H385        H  0.35840352  0.75396462  0.00211081     0.07290
H386        H  0.38337482  0.83341163  0.07086725     0.07140
C387        C  0.44673176  0.60125663  0.00330701     0.04180
C388        C  0.44064562  0.61128193  0.46405705    -0.11970
C389        C  0.42890054  0.62960155  0.46453701     0.01680
C390        C  0.42618784  0.64027135  0.00473043    -0.10500
C391        C  0.43042879  0.62924872  0.04392515     0.04170
C392        C  0.44069700  0.60976558  0.04317456    -0.09920
H393        H  0.44350191  0.60349194  0.43315065     0.09760
H394        H  0.41749110  0.65472056  0.00553714     0.07290
H395        H  0.44289016  0.60041093  0.07350075     0.07140
O396        O  0.29381064  0.65151706  0.30839074    -0.84300
O397        O  0.33388940  0.70937594  0.29019829    -0.81350
C398        C  0.35706489  0.71731209  0.31388563     0.99160
O399        O  0.37332607  0.70715117  0.30604227    -0.81380
O400        O  0.38708668  0.66657068  0.28348804    -0.84020
C401        C  0.37206896  0.64594868  0.31013311     1.03690
O402        O  0.34425974  0.62867935  0.30393370    -0.76790
O403        O  0.28588223  0.61044583  0.28081087    -0.76970
C404        C  0.28060308  0.62389069  0.30958870     1.03640
O405        O  0.27750983  0.63923883  0.21647964    -0.84300
O406        O  0.32124936  0.69561643  0.19853512    -0.81360
C407        C  0.34727452  0.71707027  0.19234818     0.99180
O408        O  0.36869167  0.72008321  0.21641536    -0.81390
O409        O  0.37848695  0.67636442  0.19216654    -0.83990
C410        C  0.37504759  0.65131953  0.18800303     1.03650
O411        O  0.35904374  0.63128311  0.21462470    -0.76810
O412        O  0.30304831  0.62080774  0.19090515    -0.76960
C413        C  0.28167315  0.62511842  0.18736709     1.03620
Cr414      Cr  0.30857700  0.67317764  0.25331414     1.93740
Cr415      Cr  0.37402443  0.69045289  0.24936145     1.93210
Cr416      Cr  0.32389155  0.62553235  0.24765712     1.39100
O417        O  0.33557026  0.66320197  0.25013735    -1.22050
C418        C  0.15570105  0.55351983  0.99114414     0.04180
C419        C  0.17200302  0.56500567  0.03093332    -0.11970
C420        C  0.20296687  0.57588805  0.03395996     0.01680
C421        C  0.21737187  0.57564042  0.99605085    -0.10500
C422        C  0.20225277  0.56776625  0.45556502     0.04170
C423        C  0.17120209  0.55516224  0.45352526    -0.09750
H424        H  0.16053820  0.56593833  0.05913072     0.09760
H425        H  0.24119431  0.58419979  0.99714309     0.07290
H426        H  0.15948262  0.54798343  0.42220994     0.07140
C427        C  0.25838287  0.60743459  0.34429735    -0.04290
C428        C  0.25474658  0.58121451  0.36248251    -0.01410
C429        C  0.23538467  0.56736159  0.39770758     0.03580
C430        C  0.21998925  0.57978519  0.41551609    -0.04290
C431        C  0.22369321  0.60590459  0.39767912    -0.01390
C432        C  0.24173731  0.61896572  0.36132000     0.03580
C433        C  0.27205558  0.56923016  0.34687796     0.38230
C434        C  0.21075570  0.62075060  0.41889891     0.38220
C435        C  0.24270099  0.64419741  0.34135989     0.36640
C436        C  0.23203467  0.54087524  0.41672049     0.36640
N437        N  0.24336090  0.66425044  0.32545491    -0.38180
N438        N  0.22937384  0.51977731  0.43203114    -0.38180
N439        N  0.20103720  0.63294957  0.43633269    -0.37620
N440        N  0.28597159  0.55970929  0.33470246    -0.37620
C441        C  0.26088208  0.61318440  0.14919473    -0.04290
C442        C  0.23211152  0.58809210  0.15339363    -0.01410
C443        C  0.21270936  0.57593936  0.11639855     0.03580
C444        C  0.22142965  0.58985827  0.07510185    -0.04290
C445        C  0.24935073  0.61695457  0.07267256    -0.01390
C446        C  0.26954870  0.62748710  0.10876472     0.03580
C447        C  0.22285094  0.57433260  0.19582371     0.38230
C448        C  0.25712478  0.63486332  0.03365291     0.38220
C449        C  0.29950804  0.65293173  0.10406138     0.36640
C450        C  0.18418379  0.54897120  0.12182864     0.36640
N451        N  0.32350960  0.67293172  0.09991451    -0.38180
N452        N  0.16156367  0.52768941  0.12847677    -0.38180
N453        N  0.26346620  0.64923729  0.50267232    -0.37620
N454        N  0.21555761  0.56354633  0.22973712    -0.37620
C455        C  0.39034179  0.64535038  0.15269736    -0.04290
C456        C  0.37663009  0.61692661  0.13336545    -0.01410
C457        C  0.39089151  0.61130532  0.09986571     0.03580
C458        C  0.41854140  0.63409572  0.08432443    -0.04290
C459        C  0.43257053  0.66224162  0.10379637    -0.01390
C460        C  0.41878690  0.66782976  0.13815560     0.03580
C461        C  0.34706206  0.59360005  0.14601975     0.38230
C462        C  0.46126871  0.68548793  0.08825752     0.38220
C463        C  0.43433894  0.69667878  0.15878791     0.36640
C464        C  0.37642995  0.58221347  0.07999708     0.36640
N465        N  0.44681020  0.71971085  0.17518467    -0.38180
N466        N  0.36503583  0.55906410  0.06410834    -0.38180
N467        N  0.48414766  0.70398984  0.07577836    -0.37620
N468        N  0.32347235  0.57492245  0.15588340    -0.37620
C469        C  0.38708804  0.64189990  0.34906538    -0.04290
C470        C  0.37202041  0.63305491  0.38898954    -0.01410
C471        C  0.38494449  0.62720883  0.42528419     0.03580
C472        C  0.41483814  0.63382565  0.42426812    -0.04290
C473        C  0.43052310  0.64394914  0.38487305    -0.01390
C474        C  0.41633705  0.64696024  0.34705169     0.03580
C475        C  0.34394186  0.63174037  0.39414775     0.38230
C476        C  0.46139884  0.65172680  0.38315455     0.38220
C477        C  0.43170463  0.65463436  0.30593265     0.36640
C478        C  0.36671142  0.61338741  0.46315800     0.36640
N479        N  0.44382980  0.66060867  0.27304399    -0.38180
N480        N  0.35201802  0.60240029  0.99314069    -0.38180
N481        N  0.48602190  0.65789777  0.38158555    -0.37620
N482        N  0.32191156  0.63119679  0.39919809    -0.37620
C483        C  0.36446603  0.77574291  0.08258611    -0.04290
C484        C  0.33484275  0.75518222  0.09384819    -0.01410
C485        C  0.32896353  0.73667543  0.13026195     0.03580
C486        C  0.35299385  0.73873764  0.15629442    -0.04290
C487        C  0.38281447  0.76090453  0.14575611    -0.01390
C488        C  0.38835459  0.77831126  0.10830167     0.03580
C489        C  0.31036546  0.75245864  0.06683640     0.38230
C490        C  0.40840006  0.76614427  0.17257157     0.38220
C491        C  0.41888962  0.79728073  0.09413641     0.36640
C492        C  0.29795285  0.71544160  0.13985666     0.36640
N493        N  0.44317745  0.81194789  0.08250767    -0.38180
N494        N  0.27315525  0.69845719  0.14705967    -0.38180
N495        N  0.42895197  0.77068955  0.19387999    -0.37620
N496        N  0.29091069  0.75026241  0.04512818    -0.37620
C497        C  0.36531747  0.73894878  0.35087888    -0.04290
C498        C  0.35178890  0.75603726  0.35377255    -0.01410
C499        C  0.35751711  0.77426774  0.39046727     0.03580
C500        C  0.37805281  0.77717081  0.42351920    -0.04290
C501        C  0.39306195  0.76190520  0.41974328    -0.01390
C502        C  0.38645282  0.74250381  0.38427338     0.03580
C503        C  0.33199600  0.75537805  0.31918512     0.38230
C504        C  0.41507937  0.76587697  0.45312062     0.38220
C505        C  0.40103089  0.72574386  0.38371368     0.36640
C506        C  0.34089494  0.78879487  0.39539748     0.36640
N507        N  0.41280909  0.71252130  0.38366596    -0.38180
N508        N  0.32722117  0.79993339  0.39938417    -0.38180
N509        N  0.43262279  0.76915724  0.47977958    -0.37620
N510        N  0.31624457  0.75500356  0.29169401    -0.37620
C511        C  0.06013634  0.51891627  0.99156766    -0.04290
C512        C  0.07781837  0.53890131  0.45883771    -0.01410
C513        C  0.10900173  0.55064372  0.45866230     0.03580
C514        C  0.12254210  0.54068051  0.98910678    -0.04290
C515        C  0.10412157  0.51825580  0.01847074    -0.01390
C516        C  0.07373130  0.50900436  0.02181674     0.03580
C517        C  0.06385412  0.54682476  0.42440052     0.38230
C518        C  0.11559087  0.50255506  0.04241044     0.38220
C519        C  0.05701012  0.49002051  0.05761124     0.36640
C520        C  0.12664635  0.57272871  0.42659222     0.36640
N521        N  0.04422049  0.97507468  0.08663102    -0.38180
N522        N  0.13989033  0.58993774  0.40005038    -0.38180
N523        N  0.12396684  0.48896167  0.06032089    -0.37620
N524        N  0.05274172  0.55306847  0.39682878    -0.37620
C525        C  0.41597426  0.87300568  0.00528689    -0.04290
C526        C  0.43481146  0.88915093  0.04188331    -0.01410
C527        C  0.45231981  0.92018851  0.04115259     0.03580
C528        C  0.45401423  0.93543918  0.00270744    -0.04290
C529        C  0.43559263  0.91987501  0.46635769    -0.01390
C530        C  0.41527654  0.88922480  0.46865549     0.03580
C531        C  0.43752544  0.87465367  0.08032033     0.38230
C532        C  0.43853625  0.93516149  0.42571206     0.38220
C533        C  0.39318235  0.87497792  0.43352201     0.36640
C534        C  0.46841263  0.93660085  0.08035871     0.36640
N535        N  0.37577519  0.86421894  0.40508575    -0.38180
N536        N  0.48064666  0.94955633  0.11196162    -0.38180
N537        N  0.44118306  0.94698524  0.39284365    -0.37620
N538        N  0.44004475  0.86407031  0.11193211    -0.37620
C539        C  0.47692762  0.53948386  0.00100087    -0.04290
C540        C  0.49109299  0.56433185  0.02926033    -0.01410
C541        C  0.48221196  0.58513128  0.02842378     0.03580
C542        C  0.45711869  0.57996160  0.00260636    -0.04290
C543        C  0.44186139  0.55422231  0.47632462    -0.01390
C544        C  0.45273957  0.53514154  0.47362517     0.03580
C545        C  0.01426673  0.56825039  0.06035272     0.38230
C546        C  0.41423093  0.54657425  0.45300207     0.38220
C547        C  0.43940840  0.51168390  0.44125125     0.36640
C548        C  0.99948838  0.61222531  0.05350349     0.36640
N549        N  0.42845529  0.49326529  0.41500549    -0.38180
N550        N  0.01330460  0.63385831  0.07341546    -0.38180
N551        N  0.39219260  0.54040746  0.43442320    -0.37620
N552        N  0.03272810  0.57141456  0.08521726    -0.37620
C553        C  0.48724219  0.51809109  0.99998501     0.04180
C554        C  0.46659102  0.98767116  0.00341286    -0.11970
C555        C  0.47589455  0.96755884  0.50013822     0.01680
C556        C  0.00622625  0.97779996  0.49503768    -0.10500
C557        C  0.02751819  0.50809806  0.49385396     0.04170
C558        C  0.01771743  0.52803455  0.99539069    -0.09920
H559        H  0.44317546  0.97955339  0.00839724     0.09760
H560        H  0.01326486  0.96209373  0.49241917     0.07290
H561        H  0.03392828  0.55139875  0.99320310     0.07140
C562        C  0.39835719  0.83969901  0.50401564     0.04180
C563        C  0.39730647  0.82442709  0.96576023    -0.11970
C564        C  0.38135533  0.79355240  0.96436177     0.01680
C565        C  0.36884590  0.77768983  0.50233633    -0.10500
C566        C  0.37102086  0.79227029  0.54109533     0.04170
C567        C  0.38382519  0.82288966  0.54115958    -0.09920
H568        H  0.40907326  0.83634505  0.93700819     0.09760
H569        H  0.35839523  0.75396409  0.50211207     0.07290
H570        H  0.38334930  0.83340537  0.57087185     0.07140
C571        C  0.44672519  0.60124581  0.50330459     0.04180
C572        C  0.44065211  0.61129240  0.96405934    -0.11970
C573        C  0.42890586  0.62961095  0.96453867     0.01680
C574        C  0.42618338  0.64026223  0.50472901    -0.10500
C575        C  0.43042372  0.62923896  0.54392340     0.04170
C576        C  0.44069087  0.60975500  0.54317235    -0.09920
H577        H  0.44350885  0.60350249  0.93315317     0.09760
H578        H  0.41748768  0.65471231  0.50553617     0.07290
H579        H  0.44288377  0.60040007  0.57349841     0.07140
O580        O  0.29381199  0.65151251  0.80839536    -0.84300
O581        O  0.33388986  0.70937114  0.79020310    -0.81350
C582        C  0.35706844  0.71730900  0.81388395     0.99160
O583        O  0.37333038  0.70715001  0.80603432    -0.81380
O584        O  0.38708647  0.66656685  0.78348170    -0.84020
C585        C  0.37206971  0.64594661  0.81012997     1.03690
O586        O  0.34426032  0.62867671  0.80393293    -0.76790
O587        O  0.28588149  0.61044131  0.78081304    -0.76970
C588        C  0.28060301  0.62388609  0.80959177     1.03640
O589        O  0.27750833  0.63923491  0.71648390    -0.84300
O590        O  0.32124496  0.69561314  0.69854023    -0.81360
C591        C  0.34726975  0.71706575  0.69234734     0.99180
O592        O  0.36868940  0.72007753  0.71640720    -0.81390
O593        O  0.37848151  0.67635686  0.69215949    -0.83990
C594        C  0.37504342  0.65131240  0.68799904     1.03650
O595        O  0.35904136  0.63127739  0.71462355    -0.76810
O596        O  0.30304587  0.62080312  0.69090727    -0.76960
C597        C  0.28167134  0.62511482  0.68737023     1.03620
Cr598      Cr  0.30857606  0.67317346  0.75331854     1.93740
Cr599      Cr  0.37402341  0.69044831  0.74935441     1.93210
Cr600      Cr  0.32389032  0.62552804  0.74765767     1.39100
O601        O  0.33556922  0.66319788  0.75013666    -1.22050
C602        C  0.15570380  0.55352270  0.49114217     0.04180
C603        C  0.17200525  0.56500802  0.53093168    -0.11970
C604        C  0.20296884  0.57588965  0.53395928     0.01680
C605        C  0.21737428  0.57564234  0.49605043    -0.10500
C606        C  0.20224988  0.56776353  0.95556584     0.04170
C607        C  0.17119911  0.55515936  0.95352681    -0.09750
H608        H  0.16054017  0.56594081  0.55912866     0.09760
H609        H  0.24119663  0.58420133  0.49714320     0.07290
H610        H  0.15947931  0.54798004  0.92221180     0.07140
C611        C  0.25838173  0.60743007  0.84429922    -0.04290
C612        C  0.25474479  0.58121006  0.86248550    -0.01410
C613        C  0.23538195  0.56735745  0.89770978     0.03580
C614        C  0.21998615  0.57978130  0.91551634    -0.04290
C615        C  0.22369045  0.60590045  0.89767772    -0.01390
C616        C  0.24173564  0.61896130  0.86131947     0.03580
C617        C  0.27205417  0.56922562  0.84688294     0.38230
C618        C  0.21075239  0.62074669  0.91889520     0.38220
C619        C  0.24270005  0.64419292  0.84135777     0.36640
C620        C  0.23203141  0.54087121  0.91672397     0.36640
N621        N  0.24336059  0.66424589  0.82545146    -0.38180
N622        N  0.22937011  0.51977334  0.93203563    -0.38180
N623        N  0.20103355  0.63294597  0.93632716    -0.37620
N624        N  0.28597049  0.55970471  0.83470898    -0.37620
C625        C  0.26088097  0.61318255  0.64919722    -0.04290
C626        C  0.23210967  0.58809119  0.65339461    -0.01410
C627        C  0.21270863  0.57593939  0.61639833     0.03580
C628        C  0.22143073  0.58985871  0.57510209    -0.04290
C629        C  0.24935256  0.61695434  0.57267441    -0.01390
C630        C  0.26954958  0.62748540  0.60876759     0.03580
C631        C  0.22284735  0.57433143  0.69582423     0.38230
C632        C  0.25712837  0.63486396  0.53365554     0.38220
C633        C  0.29951007  0.65292846  0.60406554     0.36640
C634        C  0.18418240  0.54897169  0.62182681     0.36640
N635        N  0.32351255  0.67292710  0.59991974    -0.38180
N636        N  0.16156173  0.52769025  0.62847379    -0.38180
N637        N  0.26346121  0.64923592  0.00266903    -0.37620
N638        N  0.21555268  0.56354495  0.72973728    -0.37620
C639        C  0.39033739  0.64534250  0.65269419    -0.04290
C640        C  0.37662570  0.61691835  0.63336384    -0.01410
C641        C  0.39088691  0.61129641  0.59986457     0.03580
C642        C  0.41853683  0.63408648  0.58432277    -0.04290
C643        C  0.43256607  0.66223277  0.60379355    -0.01390
C644        C  0.41878239  0.66782165  0.63815184     0.03580
C645        C  0.34705778  0.59359215  0.64601917     0.38230
C646        C  0.46126428  0.68547875  0.58825429     0.38220
C647        C  0.43433404  0.69667129  0.65878232     0.36640
C648        C  0.37642497  0.58220433  0.57999667     0.36640
N649        N  0.44680469  0.71970385  0.67517761    -0.38180
N650        N  0.36503052  0.55905478  0.56410844    -0.38180
N651        N  0.48414326  0.70398043  0.57577484    -0.37620
N652        N  0.32346813  0.57491489  0.65588369    -0.37620
C653        C  0.38708998  0.64190078  0.84906349    -0.04290
C654        C  0.37202284  0.63305718  0.88898823    -0.01410
C655        C  0.38494831  0.62721437  0.92528452     0.03580
C656        C  0.41484267  0.63383327  0.92426918    -0.04290
C657        C  0.43052719  0.64395573  0.88487360    -0.01390
C658        C  0.41633992  0.64696338  0.84705088     0.03580
C659        C  0.34394330  0.63174083  0.89414533     0.38230
C660        C  0.46140372  0.65173573  0.88315585     0.38220
C661        C  0.43170730  0.65463636  0.80593170     0.36640
C662        C  0.36671585  0.61339393  0.96315918     0.36640
N663        N  0.44383234  0.66060978  0.77304298    -0.38180
N664        N  0.35201323  0.60239304  0.49313895    -0.38180
N665        N  0.48602738  0.65790853  0.88158745    -0.37620
N666        N  0.32191220  0.63119580  0.89919500    -0.37620
C667        C  0.36445176  0.77573895  0.58258822    -0.04290
C668        C  0.33482950  0.75517322  0.59384848    -0.01410
C669        C  0.32895319  0.73666622  0.63026123     0.03580
C670        C  0.35298545  0.73873299  0.65629449    -0.04290
C671        C  0.38280465  0.76090474  0.64575807    -0.01390
C672        C  0.38834209  0.77831203  0.60830479     0.03580
C673        C  0.31035035  0.75244471  0.56683573     0.38230
C674        C  0.40839150  0.76614933  0.67257480     0.38220
C675        C  0.41887672  0.79728743  0.59414175     0.36640
C676        C  0.29794343  0.71542720  0.63985345     0.36640
N677        N  0.44316437  0.81195940  0.58251476    -0.38180
N678        N  0.27314656  0.69843879  0.64705446    -0.38180
N679        N  0.42894433  0.77069818  0.69388406    -0.37620
N680        N  0.29089408  0.75024448  0.54512678    -0.37620
C681        C  0.36532403  0.73894549  0.85087776    -0.04290
C682        C  0.35180072  0.75603861  0.85377146    -0.01410
C683        C  0.35753242  0.77427000  0.89046617     0.03580
C684        C  0.37806624  0.77716866  0.92351820    -0.04290
C685        C  0.39306988  0.76189773  0.91974266    -0.01390
C686        C  0.38645735  0.74249585  0.88427242     0.03580
C687        C  0.33201019  0.75538347  0.81918360     0.38230
C688        C  0.41508502  0.76586450  0.95312063     0.38220
C689        C  0.40102962  0.72573048  0.88371262     0.36640
C690        C  0.34091603  0.78880306  0.89539610     0.36640
N691        N  0.41280364  0.71250399  0.88366510    -0.38180
N692        N  0.32724698  0.79994652  0.89938274    -0.38180
N693        N  0.43262664  0.76914073  0.97978005    -0.37620
N694        N  0.31626064  0.75501212  0.79169210    -0.37620
C695        C  0.06014034  0.51892269  0.49156676    -0.04290
C696        C  0.07781423  0.53889536  0.95883898    -0.01410
C697        C  0.10899791  0.55063906  0.95866429     0.03580
C698        C  0.12254516  0.54068410  0.48910426    -0.04290
C699        C  0.10412428  0.51825952  0.51846806    -0.01390
C700        C  0.07373459  0.50900966  0.52181517     0.03580
C701        C  0.06384951  0.54681789  0.92440127     0.38230
C702        C  0.11559257  0.50255737  0.54240633     0.38220
C703        C  0.05701335  0.49002646  0.55761022     0.36640
C704        C  0.12664208  0.57272434  0.92659430     0.36640
N705        N  0.04423025  0.97506606  0.58662061    -0.38180
N706        N  0.13988562  0.58993357  0.90005251    -0.38180
N707        N  0.12396777  0.48896293  0.56031549    -0.37620
N708        N  0.05273672  0.55306083  0.89682911    -0.37620
C709        C  0.41594199  0.87300369  0.50529142    -0.04290
C710        C  0.43478042  0.88915083  0.54188580    -0.01410
C711        C  0.45228760  0.92018847  0.54115240     0.03580
C712        C  0.45397863  0.93543758  0.50270696    -0.04290
C713        C  0.43563259  0.91987817  0.96635412    -0.01390
C714        C  0.41531424  0.88922842  0.96864926     0.03580
C715        C  0.43749647  0.87465561  0.58032373     0.38230
C716        C  0.43858362  0.93516571  0.92570704     0.38220
C717        C  0.39322363  0.87498406  0.93351085     0.36640
C718        C  0.46838248  0.93660268  0.58035628     0.36640
N719        N  0.37581972  0.86422718  0.90507028    -0.38180
N720        N  0.48061822  0.94955990  0.61195727    -0.38180
N721        N  0.44123689  0.94699030  0.89283761    -0.37620
N722        N  0.44001715  0.86407387  0.61193637    -0.37620
C723        C  0.47692075  0.53947252  0.50100066    -0.04290
C724        C  0.49108585  0.56432065  0.52925992    -0.01410
C725        C  0.48220511  0.58512029  0.52842224     0.03580
C726        C  0.45711211  0.57995070  0.50260415    -0.04290
C727        C  0.44186797  0.55423345  0.97632633    -0.01390
C728        C  0.45274649  0.53515313  0.97362555     0.03580
C729        C  0.01427480  0.56826193  0.56035131     0.38230
C730        C  0.41423707  0.54658508  0.95300477     0.38220
C731        C  0.43941576  0.51169616  0.94125047     0.36640
C732        C  0.99949530  0.61223609  0.55350249     0.36640
N733        N  0.42846317  0.49327810  0.91500383    -0.38180
N734        N  0.01331135  0.63386924  0.57341417    -0.38180
N735        N  0.39219840  0.54041801  0.93442671    -0.37620
N736        N  0.03273669  0.57142664  0.58521524    -0.37620
C737        C  0.98723872  0.01808857  0.50000187     0.04180
C738        C  0.96656799  0.48768283  0.50338876    -0.11970
C739        C  0.97589734  0.46755882  0.00012079     0.01680
C740        C  0.50622737  0.47780062  0.99503194    -0.10500
C741        C  0.52754198  0.00809559  0.99386255     0.04170
C742        C  0.51770878  0.02803500  0.49539229    -0.09920
H743        H  0.94315024  0.47956850  0.50836530     0.09760
H744        H  0.51326519  0.46209355  0.99241778     0.07290
H745        H  0.53391749  0.05139915  0.49319598     0.07140
C746        C  0.89835716  0.33970045  0.00401390     0.04180
C747        C  0.89728178  0.32443870  0.46576485    -0.11970
C748        C  0.88133792  0.29356423  0.46436781     0.01680
C749        C  0.86884784  0.27769143  0.00233981    -0.10500
C750        C  0.87102365  0.29227325  0.04109778     0.04170
C751        C  0.88382669  0.32289240  0.04115946    -0.09920
H752        H  0.90904607  0.33635791  0.43701196     0.09760
H753        H  0.85839776  0.25396577  0.00211736     0.07290
H754        H  0.88335098  0.33340894  0.07087090     0.07140
C755        C  0.94672555  0.10126144  0.00331096     0.04180
C756        C  0.94066321  0.11129976  0.46406825    -0.11970
C757        C  0.92892267  0.12962331  0.46454547     0.01680
C758        C  0.92618700  0.14028037  0.00472694    -0.10500
C759        C  0.93043068  0.12926184  0.04392400     0.04170
C760        C  0.94069824  0.10977821  0.04317715    -0.09920
H761        H  0.94351115  0.10350118  0.43316363     0.09760
H762        H  0.91749238  0.15473140  0.00553132     0.07290
H763        H  0.94289513  0.10042786  0.07350543     0.07140
O764        O  0.79381916  0.15152377  0.30840303    -0.84300
O765        O  0.83389371  0.20938299  0.29020904    -0.81350
C766        C  0.85707029  0.21732212  0.31389540     0.99160
O767        O  0.87333410  0.20716422  0.30605208    -0.81380
O768        O  0.88709938  0.16658661  0.28350103    -0.84020
C769        C  0.87208324  0.14596423  0.31014664     1.03690
O770        O  0.84427419  0.12869335  0.30394884    -0.76790
O771        O  0.78589487  0.11045350  0.28082555    -0.76970
C772        C  0.78061202  0.12389750  0.30960029     1.03640
O773        O  0.77751958  0.13924277  0.21649171    -0.84300
O774        O  0.82125395  0.19562094  0.19854640    -0.81360
C775        C  0.84727761  0.21707648  0.19235745     0.99180
O776        O  0.86869653  0.22009295  0.21642413    -0.81390
O777        O  0.87849629  0.17637717  0.19217826    -0.83990
C778        C  0.87505928  0.15133331  0.18801532     1.03650
O779        O  0.85905939  0.13129752  0.21464037    -0.76810
O780        O  0.80306309  0.12081648  0.19091996    -0.76960
C781        C  0.78168653  0.12512474  0.18737950     1.03620
Cr782      Cr  0.80858403  0.17318359  0.25332602     1.93740
Cr783      Cr  0.87403346  0.19046561  0.24937257     1.93210
Cr784      Cr  0.82390552  0.12554332  0.24767235     1.39100
O785        O  0.83558029  0.16321192  0.25015072    -1.22050
C786        C  0.65572672  0.05351893  0.99114610     0.04180
C787        C  0.67202871  0.06500674  0.03093442    -0.11970
C788        C  0.70299208  0.07588770  0.03396248     0.01680
C789        C  0.71739711  0.07563808  0.99605447    -0.10500
C790        C  0.70224670  0.06777655  0.45556233     0.04170
C791        C  0.67119605  0.05517367  0.45352351    -0.09750
H792        H  0.66056415  0.06594199  0.05913022     0.09760
H793        H  0.74121952  0.08419746  0.99714695     0.07290
H794        H  0.65947601  0.04799406  0.42220872     0.07140
C795        C  0.75838696  0.10744093  0.34430321    -0.04290
C796        C  0.75474932  0.08122176  0.36249374    -0.01410
C797        C  0.73538243  0.06736886  0.39771386     0.03580
C798        C  0.71998373  0.07979202  0.41551285    -0.04290
C799        C  0.72368836  0.10591013  0.39766943    -0.01390
C800        C  0.74173716  0.11897077  0.36131442     0.03580
C801        C  0.77206174  0.06923846  0.34689985     0.38230
C802        C  0.71074776  0.12075635  0.41887976     0.38220
C803        C  0.74270180  0.14420102  0.34134702     0.36640
C804        C  0.73203058  0.04088301  0.41673174     0.36640
N805        N  0.74336258  0.16425291  0.32543617    -0.38180
N806        N  0.72936803  0.01978535  0.43204625    -0.38180
N807        N  0.70102717  0.13295593  0.43630611    -0.37620
N808        N  0.78598044  0.05971844  0.33473275    -0.37620
C809        C  0.76089840  0.11319010  0.14920453    -0.04290
C810        C  0.73212770  0.08809797  0.15340107    -0.01410
C811        C  0.71272945  0.07594257  0.11640289     0.03580
C812        C  0.72145349  0.08985901  0.07510487    -0.04290
C813        C  0.74937513  0.11695489  0.07267655    -0.01390
C814        C  0.76956937  0.12748993  0.10877297     0.03580
C815        C  0.72286316  0.07434111  0.19583218     0.38230
C816        C  0.75715361  0.13486093  0.03365364     0.38220
C817        C  0.79952914  0.15293464  0.10407298     0.36640
C818        C  0.68420424  0.04897376  0.12183154     0.36640
N819        N  0.82353100  0.17293481  0.09992927    -0.38180
N820        N  0.66158447  0.02769153  0.12847935    -0.38180
N821        N  0.76346063  0.14924849  0.50266504    -0.37620
N822        N  0.71556672  0.06355703  0.22974637    -0.37620
C823        C  0.89035080  0.14536468  0.15270521    -0.04290
C824        C  0.87663785  0.11694097  0.13337311    -0.01410
C825        C  0.89089612  0.11132018  0.09986815     0.03580
C826        C  0.91854454  0.13411082  0.08432291    -0.04290
C827        C  0.93257441  0.16225710  0.10379366    -0.01390
C828        C  0.91879363  0.16784491  0.13815745     0.03580
C829        C  0.84707161  0.09361384  0.14603307     0.38230
C830        C  0.96127035  0.18550399  0.08824922     0.38220
C831        C  0.93434623  0.19669442  0.15878828     0.36640
C832        C  0.87643267  0.08222851  0.07999841     0.36640
N833        N  0.94681779  0.21972689  0.17518383    -0.38180
N834        N  0.86503707  0.05907937  0.06410856    -0.38180
N835        N  0.98414749  0.20400646  0.07576560    -0.37620
N836        N  0.82348333  0.07493575  0.15590124    -0.37620
C837        C  0.88710384  0.14191634  0.34907744    -0.04290
C838        C  0.87203828  0.13307329  0.38900344    -0.01410
C839        C  0.88496470  0.12722979  0.42529790     0.03580
C840        C  0.91485742  0.13384430  0.42427745    -0.04290
C841        C  0.93053918  0.14396316  0.38487925    -0.01390
C842        C  0.91635163  0.14697414  0.34705971     0.03580
C843        C  0.84395843  0.13175623  0.39416232     0.38230
C844        C  0.96141309  0.15173564  0.38315551     0.38220
C845        C  0.93171590  0.15464475  0.30593801     0.36640
C846        C  0.86673508  0.11341355  0.46317642     0.36640
N847        N  0.94383835  0.16061618  0.27304720    -0.38180
N848        N  0.85201617  0.10242005  0.99313872    -0.38180
N849        N  0.98603458  0.15790221  0.38158231    -0.37620
N850        N  0.82192656  0.13120980  0.39921179    -0.37620
C851        C  0.86445603  0.27574369  0.08259199    -0.04290
C852        C  0.83483422  0.25517770  0.09385366    -0.01410
C853        C  0.82895920  0.23667241  0.13026807     0.03580
C854        C  0.85299232  0.23874144  0.15630185    -0.04290
C855        C  0.88281107  0.26091290  0.14576328    -0.01390
C856        C  0.88834726  0.27831868  0.10830854     0.03580
C857        C  0.81035421  0.25244721  0.06684082     0.38230
C858        C  0.90839867  0.26615810  0.17257861     0.38220
C859        C  0.91888149  0.29729454  0.09414422     0.36640
C860        C  0.79794981  0.21543276  0.13986148     0.36640
N861        N  0.94316885  0.31196696  0.08251632    -0.38180
N862        N  0.77315327  0.19844371  0.14706342    -0.38180
N863        N  0.92895213  0.27070753  0.19388678    -0.37620
N864        N  0.79089725  0.25024540  0.04513183    -0.37620
C865        C  0.86532116  0.23895889  0.35088751    -0.04290
C866        C  0.85179165  0.25604661  0.35377832    -0.01410
C867        C  0.85751845  0.27427741  0.39047193     0.03580
C868        C  0.87805371  0.27718151  0.42352529    -0.04290
C869        C  0.89306383  0.26191671  0.41975217    -0.01390
C870        C  0.88645592  0.24251485  0.38428355     0.03580
C871        C  0.83199939  0.25538633  0.31918893     0.38230
C872        C  0.91508096  0.26588986  0.45313098     0.38220
C873        C  0.90103443  0.22575524  0.38372691     0.36640
C874        C  0.84089542  0.28880388  0.39539945     0.36640
N875        N  0.91281302  0.21253303  0.38368173    -0.38180
N876        N  0.82722098  0.29994189  0.39938402    -0.38180
N877        N  0.93262417  0.26917127  0.47979108    -0.37620
N878        N  0.81624845  0.25501096  0.29169624    -0.37620
C879        C  0.56016476  0.01892350  0.99157629    -0.04290
C880        C  0.57780744  0.03890093  0.45883702    -0.01410
C881        C  0.60899185  0.05064799  0.45866198     0.03580
C882        C  0.62256841  0.04068139  0.98910885    -0.04290
C883        C  0.60414857  0.01826056  0.01847785    -0.01390
C884        C  0.57376016  0.00901385  0.02182839     0.03580
C885        C  0.56384014  0.04681972  0.42439828     0.38230
C886        C  0.61561582  0.00255778  0.04241687     0.38220
C887        C  0.55704162  0.99003790  0.05763119     0.36640
C888        C  0.62663398  0.07273330  0.42659093     0.36640
N889        N  0.54422688  0.47506268  0.08662157    -0.38180
N890        N  0.63987596  0.08994263  0.40004847    -0.38180
N891        N  0.62398987  0.98896242  0.06032614    -0.37620
N892        N  0.55272530  0.05305966  0.39682525    -0.37620
C893        C  0.91594132  0.37300502  0.00528645    -0.04290
C894        C  0.93478051  0.38915397  0.04187913    -0.01410
C895        C  0.95228818  0.42019142  0.04114152     0.03580
C896        C  0.95397966  0.43543825  0.00269325    -0.04290
C897        C  0.93559586  0.41988439  0.46634787    -0.01390
C898        C  0.91527700  0.38923510  0.46865054     0.03580
C899        C  0.93749701  0.37466089  0.08031942     0.38230
C900        C  0.93854168  0.43516800  0.42569867     0.38220
C901        C  0.89318151  0.37498750  0.43351877     0.36640
C902        C  0.96838299  0.43660787  0.08034403     0.36640
N903        N  0.87577328  0.36422794  0.40508388    -0.38180
N904        N  0.98061861  0.44956705  0.11194378    -0.38180
N905        N  0.94118989  0.44698860  0.39282691    -0.37620
N906        N  0.94001807  0.36408086  0.11193374    -0.37620
C907        C  0.97691009  0.03947985  0.00101770    -0.04290
C908        C  0.99108710  0.06433729  0.02925928    -0.01410
C909        C  0.98220889  0.08513878  0.02841776     0.03580
C910        C  0.95710810  0.07996330  0.00261545    -0.04290
C911        C  0.94186120  0.05423175  0.47636473    -0.01390
C912        C  0.95273157  0.03514441  0.47366710     0.03580
C913        C  0.51430562  0.06827244  0.06033099     0.38230
C914        C  0.91422301  0.04658203  0.45306437     0.38220
C915        C  0.93937889  0.01167248  0.44131633     0.36640
C916        C  0.49950905  0.11223403  0.05347389     0.36640
N917        N  0.92840714  0.99324124  0.41509105    -0.38180
N918        N  0.51332836  0.13387438  0.07336828    -0.38180
N919        N  0.89217827  0.04041405  0.43450416    -0.37620
N920        N  0.53277885  0.07145039  0.08518272    -0.37620
C921        C  0.98722671  0.01808825  0.99999911     0.04180
C922        C  0.96656253  0.48767243  0.00338623    -0.11970
C923        C  0.97590152  0.46756834  0.50012299     0.01680
C924        C  0.50622587  0.47779329  0.49503207    -0.10500
C925        C  0.52750801  0.00809303  0.49385574     0.04170
C926        C  0.51774179  0.02803701  0.99539591    -0.09920
H927        H  0.94314452  0.47955715  0.00836214     0.09760
H928        H  0.51326526  0.46208742  0.49241823     0.07290
H929        H  0.53395087  0.05140236  0.99319850     0.07140
C930        C  0.89835608  0.33971116  0.50401646     0.04180
C931        C  0.89728147  0.32442772  0.96576178    -0.11970
C932        C  0.88133810  0.29355319  0.96436534     0.01680
C933        C  0.86884543  0.27770221  0.50234118    -0.10500
C934        C  0.87102003  0.29228372  0.54109883     0.04170
C935        C  0.88382380  0.32290295  0.54116101    -0.09920
H936        H  0.90904412  0.33634675  0.93700781     0.09760
H937        H  0.85839514  0.25397652  0.50211851     0.07290
H938        H  0.88334745  0.33341939  0.57087218     0.07140
C939        C  0.94674804  0.10127005  0.50331775     0.04180
C940        C  0.94064152  0.11129129  0.96406108    -0.11970
C941        C  0.92890037  0.12961435  0.96453695     0.01680
C942        C  0.92621189  0.14029084  0.50473542    -0.10500
C943        C  0.93045544  0.12927196  0.54393202     0.04170
C944        C  0.94072240  0.10978782  0.54318453    -0.09920
H945        H  0.94349139  0.10349374  0.93315689     0.09760
H946        H  0.91751697  0.15474163  0.50554023     0.07290
H947        H  0.94291867  0.10043676  0.57351248     0.07140
O948        O  0.79381633  0.15151886  0.80838666    -0.84300
O949        O  0.83388921  0.20937920  0.79019717    -0.81350
C950        C  0.85706557  0.21731656  0.81388277     0.99160
O951        O  0.87332883  0.20715867  0.80603583    -0.81380
O952        O  0.88709241  0.16658127  0.78347956    -0.84020
C953        C  0.87207468  0.14595814  0.81012328     1.03690
O954        O  0.84426608  0.12868668  0.80392118    -0.76790
O955        O  0.78588845  0.11044992  0.78079875    -0.76970
C956        C  0.78061053  0.12389260  0.80958175     1.03640
O957        O  0.77751300  0.13924297  0.71647553    -0.84300
O958        O  0.82124809  0.19562265  0.69853471    -0.81360
C959        C  0.84727223  0.21707775  0.69234620     0.99180
O960        O  0.86869162  0.22009119  0.71640877    -0.81390
O961        O  0.87849269  0.17637688  0.69215799    -0.83990
C962        C  0.87505637  0.15133337  0.68799393     1.03650
O963        O  0.85905197  0.13129532  0.71461300    -0.76810
O964        O  0.80305469  0.12081763  0.69089295    -0.76960
C965        C  0.78167768  0.12512596  0.68735886     1.03620
Cr966      Cr  0.80857895  0.17318168  0.75331134     1.93740
Cr967      Cr  0.87402805  0.19046246  0.74935380     1.93210
Cr968      Cr  0.82389819  0.12554058  0.74764482     1.39100
O969        O  0.83557450  0.16320944  0.75012928    -1.22050
C970        C  0.65569831  0.05353434  0.49114128     0.04180
C971        C  0.67200091  0.06502052  0.53093020    -0.11970
C972        C  0.70296466  0.07590194  0.53395643     0.01680
C973        C  0.71736879  0.07565303  0.49604719    -0.10500
C974        C  0.70227494  0.06775998  0.95556942     0.04170
C975        C  0.67122418  0.05515526  0.95353021    -0.09750
H976        H  0.66053649  0.06595356  0.55912779     0.09760
H977        H  0.74119094  0.08421091  0.49713927     0.07290
H978        H  0.65950429  0.04797490  0.92221536     0.07140
C979        C  0.75839448  0.10743439  0.84429382    -0.04290
C980        C  0.75476395  0.08121599  0.86247631    -0.01410
C981        C  0.73540631  0.06736137  0.89770519     0.03580
C982        C  0.72000992  0.07978200  0.91552008    -0.04290
C983        C  0.72370930  0.10590049  0.89768687    -0.01390
C984        C  0.74174870  0.11896295  0.86132407     0.03580
C985        C  0.77207495  0.06923555  0.84686515     0.38230
C986        C  0.71077154  0.12074396  0.91891367     0.38220
C987        C  0.74270749  0.14419347  0.84136836     0.36640
C988        C  0.73206179  0.04087654  0.91671508     0.36640
N989        N  0.74336362  0.16424561  0.82546701    -0.38180
N990        N  0.72940548  0.01977982  0.93202319    -0.38180
N991        N  0.70105248  0.13294048  0.93635308    -0.37620
N992        N  0.78599260  0.05971786  0.83468425    -0.37620
C993        C  0.76088554  0.11319297  0.64918722    -0.04290
C994        C  0.73211352  0.08810300  0.65338800    -0.01410
C995        C  0.71270887  0.07595275  0.61639485     0.03580
C996        C  0.72142870  0.08987139  0.57509792    -0.04290
C997        C  0.74935138  0.11696602  0.57266732    -0.01390
C998        C  0.76955122  0.12749630  0.60875750     0.03580
C999        C  0.72285374  0.07434332  0.69581812     0.38230
C1000       C  0.75712494  0.13487552  0.53364848     0.38220
C1001       C  0.79951103  0.15293995  0.60405292     0.36640
C1002       C  0.68418067  0.04898809  0.62182776     0.36640
N1003       N  0.82351283  0.17293941  0.59990546    -0.38180
N1004       N  0.66155842  0.02770949  0.62847878    -0.38180
N1005       N  0.76349383  0.14923142  0.00266719    -0.37620
N1006       N  0.71556109  0.06355686  0.72973153    -0.37620
C1007       C  0.89035510  0.14536767  0.65269149    -0.04290
C1008       C  0.87664789  0.11694424  0.63335993    -0.01410
C1009       C  0.89091436  0.11132510  0.59986574     0.03580
C1010       C  0.91856466  0.13411754  0.58432855    -0.04290
C1011       C  0.93258904  0.16226349  0.60379928    -0.01390
C1012       C  0.91880049  0.16784941  0.63815390     0.03580
C1013       C  0.84707915  0.09361573  0.64600827     0.38230
C1014       C  0.96128721  0.18551203  0.58826389     0.38220
C1015       C  0.93434757  0.19669864  0.65878546     0.36640
C1016       C  0.87645732  0.08223322  0.57999792     0.36640
N1017       N  0.94681478  0.21973092  0.67518157    -0.38180
N1018       N  0.86506693  0.05908396  0.56410967    -0.38180
N1019       N  0.98416619  0.20401581  0.57578761    -0.37620
N1020       N  0.82348887  0.07493665  0.65586702    -0.37620
C1021       C  0.88709252  0.14191073  0.84905811    -0.04290
C1022       C  0.87202486  0.13307062  0.88898258    -0.01410
C1023       C  0.88494732  0.12722559  0.92528047     0.03580
C1024       C  0.91483938  0.13383787  0.92426592    -0.04290
C1025       C  0.93052439  0.14395634  0.88487001    -0.01390
C1026       C  0.91633995  0.14696721  0.84704651     0.03580
C1027       C  0.84394832  0.13176059  0.89413741     0.38230
C1028       C  0.96139854  0.15172882  0.88315269     0.38220
C1029       C  0.93170728  0.15463709  0.80592741     0.36640
C1030       C  0.86671421  0.11340987  0.96315614     0.36640
N1031       N  0.94383218  0.16060804  0.77303867    -0.38180
N1032       N  0.85203951  0.10242348  0.49316111    -0.38180
N1033       N  0.98602029  0.15789550  0.88158471    -0.37620
N1034       N  0.82191979  0.13122081  0.89918554    -0.37620
C1035       C  0.86445186  0.27575360  0.58259245    -0.04290
C1036       C  0.83482988  0.25518712  0.59385271    -0.01410
C1037       C  0.82895438  0.23667931  0.63026402     0.03580
C1038       C  0.85298720  0.23874606  0.65629571    -0.04290
C1039       C  0.88280608  0.26091889  0.64576000    -0.01390
C1040       C  0.88834277  0.27832729  0.60830825     0.03580
C1041       C  0.81035024  0.25245859  0.56684118     0.38230
C1042       C  0.90839331  0.26616306  0.67257533     0.38220
C1043       C  0.91887728  0.29730441  0.59414575     0.36640
C1044       C  0.79794484  0.21543951  0.63985636     0.36640
N1045       N  0.94316488  0.31197785  0.58251928    -0.38180
N1046       N  0.77314816  0.19845044  0.64705745    -0.38180
N1047       N  0.92894648  0.27071164  0.69388350    -0.37620
N1048       N  0.79089360  0.25025841  0.54513323    -0.37620
C1049       C  0.86531673  0.23895106  0.85087839    -0.04290
C1050       C  0.85178641  0.25603775  0.85377527    -0.01410
C1051       C  0.85751423  0.27426689  0.89047141     0.03580
C1052       C  0.87805114  0.27717037  0.92352158    -0.04290
C1053       C  0.89306114  0.26190581  0.91974336    -0.01390
C1054       C  0.88645250  0.24250574  0.88427191     0.03580
C1055       C  0.83199224  0.25537817  0.81918961     0.38230
C1056       C  0.91507915  0.26587746  0.95311961     0.38220
C1057       C  0.90103169  0.22574690  0.88370944     0.36640
C1058       C  0.84089064  0.28879232  0.89540482     0.36640
N1059       N  0.91281096  0.21252539  0.88365965    -0.38180
N1060       N  0.82721578  0.29992946  0.89939423    -0.38180
N1061       N  0.93262300  0.26915759  0.97977773    -0.37620
N1062       N  0.81623976  0.25500335  0.79169995    -0.37620
C1063       C  0.56013143  0.01892222  0.49156737    -0.04290
C1064       C  0.57784132  0.03889828  0.95884263    -0.01410
C1065       C  0.60902444  0.05063913  0.95866447     0.03580
C1066       C  0.62253876  0.04069275  0.48910538    -0.04290
C1067       C  0.60412016  0.01826832  0.51847107    -0.01390
C1068       C  0.57372934  0.00901443  0.52181813     0.03580
C1069       C  0.56387585  0.04681907  0.92440384     0.38230
C1070       C  0.61559190  0.00256983  0.54241103     0.38220
C1071       C  0.55701067  0.99003284  0.55761602     0.36640
C1072       C  0.62666797  0.07271962  0.92658838     0.36640
N1073       N  0.54422725  0.47505766  0.58662132    -0.38180
N1074       N  0.63991125  0.08992484  0.90004178    -0.38180
N1075       N  0.62396982  0.98897808  0.56032153    -0.37620
N1076       N  0.55276255  0.05306065  0.89683065    -0.37620
C1077       C  0.91594116  0.37301562  0.50528950    -0.04290
C1078       C  0.93477985  0.38916402  0.54188286    -0.01410
C1079       C  0.95228953  0.42020136  0.54114461     0.03580
C1080       C  0.95398278  0.43544820  0.50269560    -0.04290
C1081       C  0.93559242  0.41987391  0.96634598    -0.01390
C1082       C  0.91527519  0.38922419  0.96864836     0.03580
C1083       C  0.93749361  0.37467046  0.58032462     0.38230
C1084       C  0.93853607  0.43515753  0.92569754     0.38220
C1085       C  0.89317933  0.37497580  0.93351725     0.36640
C1086       C  0.96838501  0.43661769  0.58034689     0.36640
N1087       N  0.87577080  0.36421558  0.90508285    -0.38180
N1088       N  0.98062139  0.44957689  0.61194629    -0.38180
N1089       N  0.94118246  0.44697816  0.89282631    -0.37620
N1090       N  0.94001245  0.36409009  0.61194015    -0.37620
C1091       C  0.97692393  0.03948157  0.50102269    -0.04290
C1092       C  0.99110348  0.06433925  0.52926372    -0.01410
C1093       C  0.98222817  0.08514296  0.52842255     0.03580
C1094       C  0.95712770  0.07996960  0.50262146    -0.04290
C1095       C  0.94184451  0.05422591  0.97635746    -0.01390
C1096       C  0.95271775  0.03514094  0.97366042     0.03580
C1097       C  0.51427775  0.06826631  0.56033874     0.38230
C1098       C  0.91420640  0.04657423  0.95305505     0.38220
C1099       C  0.93936806  0.01166969  0.94130852     0.36640
C1100       C  0.49950018  0.11224126  0.55347730     0.36640
N1101       N  0.92839862  0.99323905  0.91508215    -0.38180
N1102       N  0.51332426  0.13388117  0.57337130    -0.38180
N1103       N  0.89216176  0.04040469  0.93449318    -0.37620
N1104       N  0.53274766  0.07143836  0.58519241    -0.37620
C1105       C  0.98724887  0.51810098  0.49998521     0.04180
C1106       C  0.96656068  0.98767000  0.50341321    -0.11970
C1107       C  0.97588590  0.96755739  0.00013820     0.01680
C1108       C  0.50626054  0.97780619  0.99504655    -0.10500
C1109       C  0.52751251  0.50808948  0.99385374     0.04170
C1110       C  0.51771183  0.52802568  0.49539068    -0.09920
H1111       H  0.94314389  0.97955387  0.50840193     0.09760
H1112       H  0.51330179  0.96210101  0.99243124     0.07290
H1113       H  0.53392185  0.55139010  0.49320324     0.07140
C1114       C  0.89835223  0.83969746  0.00401343     0.04180
C1115       C  0.89728089  0.82442591  0.46576007    -0.11970
C1116       C  0.88133639  0.79355128  0.46436082     0.01680
C1117       C  0.86884268  0.77768845  0.00233376    -0.10500
C1118       C  0.87101695  0.79226858  0.04109274     0.04170
C1119       C  0.88382042  0.82288779  0.04115721    -0.09920
H1120       H  0.90904480  0.83634597  0.43700746     0.09760
H1121       H  0.85839255  0.75396278  0.00210934     0.07290
H1122       H  0.88334403  0.83340320  0.07086951     0.07140
C1123       C  0.94672911  0.60125420  0.00330670     0.04180
C1124       C  0.94065453  0.61129891  0.46405980    -0.11970
C1125       C  0.92890649  0.62961591  0.46454003     0.01680
C1126       C  0.92618437  0.64026823  0.00473165    -0.10500
C1127       C  0.93042542  0.62924530  0.04392596     0.04170
C1128       C  0.94069402  0.60976250  0.04317462    -0.09920
H1129       H  0.94351184  0.60350978  0.43315334     0.09760
H1130       H  0.91748751  0.65471733  0.00553899     0.07290
H1131       H  0.94288742  0.60040771  0.07350051     0.07140
O1132       O  0.79380788  0.65151305  0.30839431    -0.84300
O1133       O  0.83388412  0.70937192  0.29019951    -0.81350
C1134       C  0.85706169  0.71731047  0.31388311     0.99160
O1135       O  0.87332424  0.70715159  0.30603682    -0.81380
O1136       O  0.88708429  0.66657063  0.28348542    -0.84020
C1137       C  0.87206795  0.64594980  0.31013291     1.03690
O1138       O  0.84425876  0.62867907  0.30393530    -0.76790
O1139       O  0.78587970  0.61044197  0.28081468    -0.76970
C1140       C  0.78060021  0.62388671  0.30959225     1.03640
O1141       O  0.77750494  0.63923309  0.21648351    -0.84300
O1142       O  0.82124106  0.69561131  0.19853717    -0.81360
C1143       C  0.84726555  0.71706501  0.19234592     0.99180
O1144       O  0.86868475  0.72007864  0.21640881    -0.81390
O1145       O  0.87848058  0.67635991  0.19216307    -0.83990
C1146       C  0.87504296  0.65131561  0.18800228     1.03650
O1147       O  0.85904062  0.63128010  0.21462604    -0.76810
O1148       O  0.80304423  0.62080292  0.19090845    -0.76960
C1149       C  0.78166876  0.62511318  0.18737065     1.03620
Cr1150     Cr  0.80857185  0.67317300  0.25331670     1.93740
Cr1151     Cr  0.87402000  0.69045060  0.24935721     1.93210
Cr1152     Cr  0.82388877  0.62552938  0.24765952     1.39100
O1153       O  0.83556618  0.66319883  0.25013760    -1.22050
C1154       C  0.65569941  0.55351800  0.99114439     0.04180
C1155       C  0.67200104  0.56500354  0.03093381    -0.11970
C1156       C  0.70296474  0.57588540  0.03396113     0.01680
C1157       C  0.71736999  0.57563783  0.99605223    -0.10500
C1158       C  0.70224738  0.56776332  0.45556672     0.04170
C1159       C  0.67119661  0.55515897  0.45352740    -0.09750
H1160       H  0.66053603  0.56593633  0.05913087     0.09760
H1161       H  0.74119234  0.58419679  0.99714487     0.07290
H1162       H  0.65947697  0.54798000  0.42221222     0.07140
C1163       C  0.75837924  0.60743065  0.34430016    -0.04290
C1164       C  0.75474274  0.58121081  0.36248654    -0.01410
C1165       C  0.73537999  0.56735802  0.39771087     0.03580
C1166       C  0.71998386  0.57978150  0.41551747    -0.04290
C1167       C  0.72368781  0.60590052  0.39767895    -0.01390
C1168       C  0.74173286  0.61896154  0.36132059     0.03580
C1169       C  0.77205236  0.56922664  0.34688400     0.38230
C1170       C  0.71074947  0.62074645  0.41889658     0.38220
C1171       C  0.74269674  0.64419293  0.34135898     0.36640
C1172       C  0.73202982  0.54087191  0.41672501     0.36640
N1173       N  0.74335686  0.66424572  0.32545277    -0.38180
N1174       N  0.72936880  0.51977415  0.43203665    -0.38180
N1175       N  0.70103040  0.63294547  0.43632864    -0.37620
N1176       N  0.78596888  0.55970593  0.33471008    -0.37620
C1177       C  0.76087831  0.61317970  0.14919771    -0.04290
C1178       C  0.73210711  0.58808829  0.15339592    -0.01410
C1179       C  0.71270555  0.57593610  0.11640017     0.03580
C1180       C  0.72142707  0.58985497  0.07510355    -0.04290
C1181       C  0.74934886  0.61695060  0.07267501    -0.01390
C1182       C  0.76954633  0.62748214  0.10876770     0.03580
C1183       C  0.72284533  0.57432898  0.19582591     0.38230
C1184       C  0.75712414  0.63485982  0.03365575     0.38220
C1185       C  0.79950656  0.65292548  0.10406492     0.36640
C1186       C  0.68417929  0.54896860  0.12182962     0.36640
N1187       N  0.82350882  0.67292439  0.09991860    -0.38180
N1188       N  0.66155858  0.52768738  0.12847730    -0.38180
N1189       N  0.76346007  0.64923442  0.50267309    -0.37620
N1190       N  0.71555109  0.56354287  0.22973925    -0.37620
C1191       C  0.89033766  0.64534638  0.15269759    -0.04290
C1192       C  0.87662660  0.61692246  0.13336651    -0.01410
C1193       C  0.89088831  0.61130132  0.09986701     0.03580
C1194       C  0.91853805  0.63409196  0.08432559    -0.04290
C1195       C  0.93256676  0.66223792  0.10379729    -0.01390
C1196       C  0.91878266  0.66782598  0.13815592     0.03580
C1197       C  0.84705885  0.59359564  0.14602138     0.38230
C1198       C  0.96126493  0.68548441  0.08825869     0.38220
C1199       C  0.93433397  0.69667521  0.15878765     0.36640
C1200       C  0.87642714  0.58220943  0.07999862     0.36640
N1201       N  0.94680446  0.71970742  0.17518399    -0.38180
N1202       N  0.86503334  0.55906004  0.06411002    -0.38180
N1203       N  0.98414389  0.70398646  0.07577976    -0.37620
N1204       N  0.82346936  0.57491785  0.15588551    -0.37620
C1205       C  0.88708866  0.64190427  0.34906603    -0.04290
C1206       C  0.87202162  0.63305980  0.38899074    -0.01410
C1207       C  0.88494776  0.62721740  0.42528662     0.03580
C1208       C  0.91484260  0.63383767  0.42427094    -0.04290
C1209       C  0.93052689  0.64396082  0.38487526    -0.01390
C1210       C  0.91633897  0.64696789  0.34705288     0.03580
C1211       C  0.84394130  0.63174183  0.39414812     0.38230
C1212       C  0.96140380  0.65174209  0.38315700     0.38220
C1213       C  0.93170602  0.65464111  0.30593340     0.36640
C1214       C  0.86671548  0.61339586  0.46316107     0.36640
N1215       N  0.94383077  0.66061465  0.27304443    -0.38180
N1216       N  0.85201446  0.60239655  0.99314115    -0.38180
N1217       N  0.98602775  0.65791585  0.38158815    -0.37620
N1218       N  0.82190952  0.63119546  0.39919790    -0.37620
C1219       C  0.86444785  0.77573714  0.08258543    -0.04290
C1220       C  0.83482558  0.75517146  0.09384563    -0.01410
C1221       C  0.82894923  0.73666464  0.13025857     0.03580
C1222       C  0.85298144  0.73873151  0.15629200    -0.04290
C1223       C  0.88280073  0.76090277  0.14575504    -0.01390
C1224       C  0.88833819  0.77831011  0.10830182     0.03580
C1225       C  0.81034648  0.75244287  0.06683268     0.38230
C1226       C  0.90838767  0.76614660  0.17257084     0.38220
C1227       C  0.91887282  0.79728561  0.09413882     0.36640
C1228       C  0.79793946  0.71542577  0.13985098     0.36640
N1229       N  0.94316048  0.81195771  0.08251192    -0.38180
N1230       N  0.77314260  0.69843743  0.14705214    -0.38180
N1231       N  0.92894060  0.77069490  0.19387935    -0.37620
N1232       N  0.79089027  0.75024259  0.04512354    -0.37620
C1233       C  0.86531496  0.73894740  0.35087601    -0.04290
C1234       C  0.85178698  0.75603636  0.35376965    -0.01410
C1235       C  0.85751544  0.77426681  0.39046447     0.03580
C1236       C  0.87805090  0.77716934  0.42351647    -0.04290
C1237       C  0.89305961  0.76190332  0.41974040    -0.01390
C1238       C  0.88645020  0.74250201  0.38427032     0.03580
C1239       C  0.83199463  0.75537773  0.31918181     0.38230
C1240       C  0.91507679  0.76587451  0.45311778     0.38220
C1241       C  0.90102779  0.72574161  0.38371029     0.36640
C1242       C  0.84089375  0.78879440  0.39539473     0.36640
N1243       N  0.91280578  0.71251887  0.38366242    -0.38180
N1244       N  0.82722034  0.79993330  0.39938146    -0.38180
N1245       N  0.93262001  0.76915427  0.47977675    -0.37620
N1246       N  0.81624366  0.75500367  0.29169031    -0.37620
C1247       C  0.56013503  0.51891514  0.99156733    -0.04290
C1248       C  0.57781016  0.53889060  0.45883979    -0.01410
C1249       C  0.60899417  0.55063606  0.45866568     0.03580
C1250       C  0.62254057  0.54067884  0.98910659    -0.04290
C1251       C  0.60411985  0.51825395  0.01847016    -0.01390
C1252       C  0.57372969  0.50900281  0.02181620     0.03580
C1253       C  0.56384482  0.54681263  0.42440236     0.38230
C1254       C  0.61558887  0.50255281  0.04240942     0.38220
C1255       C  0.55700837  0.49001896  0.05761062     0.36640
C1256       C  0.62663796  0.57272275  0.42659717     0.36640
N1257       N  0.54426259  0.97508856  0.08664930    -0.38180
N1258       N  0.63988134  0.58993321  0.40005670    -0.38180
N1259       N  0.62396471  0.48895918  0.06031948    -0.37620
N1260       N  0.55273157  0.55305521  0.39683043    -0.37620
C1261       C  0.91593590  0.87300208  0.00528959    -0.04290
C1262       C  0.93477373  0.88914932  0.04188436    -0.01410
C1263       C  0.95227938  0.92018700  0.04115191     0.03580
C1264       C  0.95396991  0.93543620  0.00270682    -0.04290
C1265       C  0.93559215  0.91987389  0.46635746    -0.01390
C1266       C  0.91527604  0.88922364  0.46865453     0.03580
C1267       C  0.93749109  0.87465415  0.08032140     0.38230
C1268       C  0.93853522  0.93516110  0.42571272     0.38220
C1269       C  0.89318195  0.87497714  0.43352085     0.36640
C1270       C  0.96837331  0.93660113  0.08035633     0.36640
N1271       N  0.87577490  0.86421847  0.40508439    -0.38180
N1272       N  0.98060822  0.94955826  0.11195775    -0.38180
N1273       N  0.94118154  0.94698560  0.39284516    -0.37620
N1274       N  0.94001282  0.86407236  0.11193322    -0.37620
C1275       C  0.97692740  0.53948324  0.00099963    -0.04290
C1276       C  0.99109215  0.56433110  0.02925934    -0.01410
C1277       C  0.98221041  0.58513000  0.02842298     0.03580
C1278       C  0.95711699  0.57995988  0.00260547    -0.04290
C1279       C  0.94187363  0.55424176  0.47632524    -0.01390
C1280       C  0.95275322  0.53516240  0.47362417     0.03580
C1281       C  0.51426756  0.56825082  0.06035346     0.38230
C1282       C  0.91424224  0.54659228  0.45300419     0.38220
C1283       C  0.93942324  0.51170559  0.44124880     0.36640
C1284       C  0.49949054  0.61222669  0.05350390     0.36640
N1285       N  0.92847116  0.49328772  0.41500186    -0.38180
N1286       N  0.51330723  0.63385978  0.07341552    -0.38180
N1287       N  0.89220317  0.54042430  0.43442655    -0.37620
N1288       N  0.53272896  0.57141479  0.08521779    -0.37620
C1289       C  0.98724260  0.51809092  0.99998395     0.04180
C1290       C  0.96654957  0.98766951  0.00341075    -0.11970
C1291       C  0.97589561  0.96755690  0.50013798     0.01680
C1292       C  0.50622576  0.97780360  0.49504004    -0.10500
C1293       C  0.52750953  0.50808252  0.49385369     0.04170
C1294       C  0.51771683  0.52803425  0.99539118    -0.09920
H1295       H  0.94313239  0.97955247  0.00839763     0.09760
H1296       H  0.51326587  0.96209841  0.49242367     0.07290
H1297       H  0.53392796  0.55139838  0.99320361     0.07140
C1298       C  0.89835625  0.83969741  0.50401358     0.04180
C1299       C  0.89727793  0.82442633  0.96576010    -0.11970
C1300       C  0.88133470  0.79355173  0.96436099     0.01680
C1301       C  0.86884395  0.77768817  0.50233361    -0.10500
C1302       C  0.87101914  0.79226858  0.54109278     0.04170
C1303       C  0.88382405  0.82288803  0.54115739    -0.09920
H1304       H  0.90904160  0.83634663  0.93700751     0.09760
H1305       H  0.85839288  0.75396240  0.50210910     0.07290
H1306       H  0.88334852  0.83340379  0.57086985     0.07140
C1307       C  0.94673517  0.60126350  0.50330698     0.04180
C1308       C  0.94064910  0.61129010  0.96405936    -0.11970
C1309       C  0.92890252  0.62960840  0.96453946     0.01680
C1310       C  0.92618758  0.64027513  0.50473227    -0.10500
C1311       C  0.93042945  0.62925262  0.54392642     0.04170
C1312       C  0.94069954  0.60977108  0.54317495    -0.09920
H1313       H  0.94350602  0.60350067  0.93315289     0.09760
H1314       H  0.91748951  0.65472321  0.50553977     0.07290
H1315       H  0.94289345  0.60041650  0.57350072     0.07140
O1316       O  0.79380745  0.65151287  0.80839420    -0.84300
O1317       O  0.83388364  0.70937203  0.79019992    -0.81350
C1318       C  0.85706062  0.71731016  0.81388473     0.99160
O1319       O  0.87332286  0.70715077  0.80603971    -0.81380
O1320       O  0.88708416  0.66657078  0.78348751    -0.84020
C1321       C  0.87206750  0.64594914  0.81013375     1.03690
O1322       O  0.84425838  0.62867855  0.80393518    -0.76790
O1323       O  0.78587971  0.61044201  0.78081410    -0.76970
C1324       C  0.78060017  0.62388654  0.80959200     1.03640
O1325       O  0.77750491  0.63923324  0.71648349    -0.84300
O1326       O  0.82124149  0.69561144  0.69853742    -0.81360
C1327       C  0.84726600  0.71706547  0.69234736     0.99180
O1328       O  0.86868473  0.72007949  0.71641188    -0.81390
O1329       O  0.87848147  0.67636168  0.69216544    -0.83990
C1330       C  0.87504401  0.65131754  0.68800353     1.03650
O1331       O  0.85904115  0.63128127  0.71462599    -0.76810
O1332       O  0.80304465  0.62080380  0.69090784    -0.76960
C1333       C  0.78166890  0.62511367  0.68737030     1.03620
Cr1334     Cr  0.80857169  0.67317309  0.75331690     1.93740
Cr1335     Cr  0.87401989  0.69045108  0.74935974     1.93210
Cr1336     Cr  0.82388890  0.62552973  0.74765921     1.39100
O1337       O  0.83556613  0.66319907  0.75013845    -1.22050
C1338       C  0.65569827  0.55351855  0.49114482     0.04180
C1339       C  0.67199998  0.56500411  0.53093423    -0.11970
C1340       C  0.70296384  0.57588656  0.53396121     0.01680
C1341       C  0.71736909  0.57563950  0.49605197    -0.10500
C1342       C  0.70224840  0.56776164  0.95556691     0.04170
C1343       C  0.67119769  0.55515764  0.95352733    -0.09750
H1344       H  0.66053484  0.56593629  0.55913155     0.09760
H1345       H  0.74119146  0.58419861  0.49714437     0.07290
H1346       H  0.65947814  0.54797873  0.92221208     0.07140
C1347       C  0.75837961  0.60743019  0.84430020    -0.04290
C1348       C  0.75474350  0.58121034  0.86248590    -0.01410
C1349       C  0.73538105  0.56735719  0.89771040     0.03580
C1350       C  0.71998495  0.57978041  0.91551792    -0.04290
C1351       C  0.72368879  0.60589963  0.89768041    -0.01390
C1352       C  0.74173336  0.61896089  0.86132175     0.03580
C1353       C  0.77205325  0.56922652  0.84688251     0.38230
C1354       C  0.71075086  0.62074550  0.91889942     0.38220
C1355       C  0.74269686  0.64419233  0.84136100     0.36640
C1356       C  0.73203121  0.54087104  0.91672380     0.36640
N1357       N  0.74335666  0.66424516  0.82545547    -0.38180
N1358       N  0.72937048  0.51977325  0.93203486    -0.38180
N1359       N  0.70103211  0.63294444  0.93633261    -0.37620
N1360       N  0.78596987  0.55970609  0.83470795    -0.37620
C1361       C  0.76087829  0.61318016  0.64919741    -0.04290
C1362       C  0.73210706  0.58808876  0.65339574    -0.01410
C1363       C  0.71270514  0.57593687  0.61640023     0.03580
C1364       C  0.72142635  0.58985594  0.57510370    -0.04290
C1365       C  0.74934815  0.61695160  0.57267517    -0.01390
C1366       C  0.76954593  0.62748287  0.60876754     0.03580
C1367       C  0.72284557  0.57432921  0.69582563     0.38230
C1368       C  0.75712303  0.63486117  0.53365633     0.38220
C1369       C  0.79950610  0.65292627  0.60406459     0.36640
C1370       C  0.68417875  0.54896957  0.62182996     0.36640
N1371       N  0.82350831  0.67292524  0.59991813    -0.38180
N1372       N  0.66155791  0.52768856  0.62847793    -0.38180
N1373       N  0.76346156  0.64923283  0.00267223    -0.37620
N1374       N  0.71555156  0.56354289  0.72973889    -0.37620
C1375       C  0.89033954  0.64534953  0.65269890    -0.04290
C1376       C  0.87662919  0.61692614  0.63336626    -0.01410
C1377       C  0.89089163  0.61130634  0.59986638     0.03580
C1378       C  0.91854124  0.63409789  0.58432606    -0.04290
C1379       C  0.93256929  0.66224329  0.60379933    -0.01390
C1380       C  0.91878459  0.66782994  0.63815854     0.03580
C1381       C  0.84706148  0.59359854  0.64601990     0.38230
C1382       C  0.96126737  0.68549062  0.58826174     0.38220
C1383       C  0.93433539  0.69667852  0.65879225     0.36640
C1384       C  0.87643143  0.58221492  0.57999663     0.36640
N1385       N  0.94680554  0.71971023  0.67519017    -0.38180
N1386       N  0.86503840  0.55906589  0.56410697    -0.38180
N1387       N  0.98414626  0.70399332  0.57578360    -0.37620
N1388       N  0.82347203  0.57492015  0.65588306    -0.37620
C1389       C  0.88708760  0.64190228  0.84906655    -0.04290
C1390       C  0.87202018  0.63305729  0.88899092    -0.01410
C1391       C  0.88494523  0.62721292  0.92528615     0.03580
C1392       C  0.91483948  0.63383149  0.92427038    -0.04290
C1393       C  0.93052419  0.64395502  0.88487507    -0.01390
C1394       C  0.91633731  0.64696437  0.84705323     0.03580
C1395       C  0.84394062  0.63174080  0.89414865     0.38230
C1396       C  0.96140047  0.65173434  0.88315670     0.38220
C1397       C  0.93170473  0.65463838  0.80593406     0.36640
C1398       C  0.86671246  0.61339120  0.96316012     0.36640
N1399       N  0.94382978  0.66061255  0.77304531    -0.38180
N1400       N  0.85201778  0.60240132  0.49314241    -0.38180
N1401       N  0.98602394  0.65790658  0.88158778    -0.37620
N1402       N  0.82190947  0.63119561  0.89919867    -0.37620
C1403       C  0.86444969  0.77573707  0.58258553    -0.04290
C1404       C  0.83482727  0.75517221  0.59384621    -0.01410
C1405       C  0.82895051  0.73666561  0.63025958     0.03580
C1406       C  0.85298244  0.73873186  0.65629298    -0.04290
C1407       C  0.88280193  0.76090220  0.64575539    -0.01390
C1408       C  0.88833976  0.77830927  0.60830174     0.03580
C1409       C  0.81034840  0.75244426  0.56683341     0.38230
C1410       C  0.90838868  0.76614533  0.67257097     0.38220
C1411       C  0.91887441  0.79728359  0.59413810     0.36640
C1412       C  0.79794061  0.71542766  0.63985261     0.36640
N1413       N  0.94316206  0.81195474  0.58251066    -0.38180
N1414       N  0.77314365  0.69844002  0.64705428    -0.38180
N1415       N  0.92894150  0.77069314  0.69387935    -0.37620
N1416       N  0.79089235  0.75024445  0.54512440    -0.37620
C1417       C  0.86531369  0.73894733  0.85087723    -0.04290
C1418       C  0.85178513  0.75603577  0.85377068    -0.01410
C1419       C  0.85751353  0.77426648  0.89046512     0.03580
C1420       C  0.87804962  0.77716996  0.92351671    -0.04290
C1421       C  0.89305898  0.76190458  0.91974069    -0.01390
C1422       C  0.88644951  0.74250283  0.88427121     0.03580
C1423       C  0.83199212  0.75537627  0.81918320     0.38230
C1424       C  0.91507682  0.76587680  0.95311761     0.38220
C1425       C  0.90102762  0.72574291  0.88371153     0.36640
C1426       C  0.84089101  0.78879322  0.89539556     0.36640
N1427       N  0.91280593  0.71252046  0.88366387    -0.38180
N1428       N  0.82721690  0.79993136  0.89938246    -0.38180
N1429       N  0.93262058  0.76915739  0.97977620    -0.37620
N1430       N  0.81624064  0.75500155  0.79169198    -0.37620
C1431       C  0.56013263  0.51891031  0.49156761    -0.04290
C1432       C  0.57781309  0.53889439  0.95883891    -0.01410
C1433       C  0.60899670  0.55063784  0.95866432     0.03580
C1434       C  0.62253914  0.54067797  0.48910747    -0.04290
C1435       C  0.60411920  0.51825221  0.51847044    -0.01390
C1436       C  0.57372851  0.50899914  0.52181630     0.03580
C1437       C  0.56384866  0.54681744  0.92440147     0.38230
C1438       C  0.61558970  0.50255218  0.54240921     0.38220
C1439       C  0.55700793  0.49001451  0.55761044     0.36640
C1440       C  0.62664115  0.57272333  0.92659473     0.36640
N1441       N  0.54423121  0.97507872  0.58662986    -0.38180
N1442       N  0.63988495  0.58993275  0.90005327    -0.38180
N1443       N  0.62396676  0.48895944  0.56031886    -0.37620
N1444       N  0.55273612  0.55306083  0.89682953    -0.37620
C1445       C  0.91594153  0.87300207  0.50528982    -0.04290
C1446       C  0.93478031  0.88914870  0.54188419    -0.01410
C1447       C  0.95228781  0.92018632  0.54115144     0.03580
C1448       C  0.95397858  0.93543591  0.50270665    -0.04290
C1449       C  0.93558464  0.91987355  0.96635706    -0.01390
C1450       C  0.91526977  0.88922308  0.96865398     0.03580
C1451       C  0.93749650  0.87465289  0.58032130     0.38230
C1452       C  0.93852786  0.93516030  0.92571181     0.38220
C1453       C  0.89317637  0.87497576  0.93351972     0.36640
C1454       C  0.96838348  0.93660004  0.58035524     0.36640
N1455       N  0.87576988  0.86421651  0.90508270    -0.38180
N1456       N  0.98061993  0.94955694  0.61195612    -0.38180
N1457       N  0.94117435  0.94698433  0.89284376    -0.37620
N1458       N  0.94001731  0.86407065  0.61193326    -0.37620
C1459       C  0.97693455  0.53949385  0.50099963    -0.04290
C1460       C  0.99109960  0.56434201  0.52925869    -0.01410
C1461       C  0.98221750  0.58514060  0.52842233     0.03580
C1462       C  0.95712365  0.57996984  0.50260540    -0.04290
C1463       C  0.94186692  0.55423187  0.97632509    -0.01390
C1464       C  0.95274612  0.53515208  0.97362423     0.03580
C1465       C  0.51425989  0.56823955  0.56035410     0.38230
C1466       C  0.91423595  0.54658302  0.95300335     0.38220
C1467       C  0.93941579  0.51169513  0.94124912     0.36640
C1468       C  0.49948389  0.61221596  0.55350175     0.36640
N1469       N  0.92846340  0.49327709  0.91500245    -0.38180
N1470       N  0.51330076  0.63384924  0.57341289    -0.38180
N1471       N  0.89219721  0.54041555  0.93442515    -0.37620
N1472       N  0.53272084  0.57140344  0.58521926    -0.37620
loop_ 
_geom_bond_atom_site_label_1 
_geom_bond_atom_site_label_2 
_geom_bond_distance 
_geom_bond_site_symmetry_2 
_ccdc_geom_bond_type 
C1          C370   1.407   1_545  A
C1          C742   1.408       .  A
C1          C355   1.500       .  S
C2          C369   1.407       .  A
C2          C187   1.400       .  A
C2            H7   1.083       .  S
C3          C186   1.400       .  A
C3          C740   1.400   1_554  A
C3          C160   1.484       .  S
C4          C739   1.400   1_456  A
C4          C373   1.404       .  A
C4            H8   1.084       .  S
C5          C372   1.403   1_545  A
C5          C190   1.407       .  A
C5          C143   1.497       .  S
C6          C737   1.408   1_455  A
C6          C189   1.407       .  A
C6            H9   1.083       .  S
C10          C15   1.413       .  A
C10         C195   1.416   1_554  A
C10         C157   1.514       .  S
C11          C12   1.404       .  A
C11         C194   1.416       .  A
C11          H16   1.082       .  S
C12         C197   1.395       .  A
C12         C132   1.486       .  S
C13          C14   1.394       .  A
C13         C196   1.395   1_554  A
C13          H17   1.084       .  S
C14          C15   1.404       .  A
C14         C115   1.484       .  S
C15          H18   1.081       .  S
C19          C24   1.407       .  A
C19         C204   1.409   1_554  A
C19         C174   1.498       .  S
C20          C21   1.404       .  A
C20         C203   1.409       .  A
C20          H25   1.082       .  S
C21         C206   1.402       .  A
C21         C104   1.497       .  S
C22          C23   1.397       .  A
C22         C205   1.402   1_554  A
C22          H26   1.084       .  S
C23          C24   1.401       .  A
C23          C90   1.485       .  S
C24          H27   1.084       .  S
O28         Cr46   1.972       .  S
O28          C36   1.259       .  A
O29         Cr46   2.008       .  S
O29          C30   1.266       .  A
C30         C129   1.508       .  S
C30          O31   1.257       .  A
O31         Cr47   1.968       .  S
O32         Cr47   2.013       .  S
O32          C33   1.269       .  A
C33         C101   1.489       .  S
C33          O34   1.262       .  A
O34         Cr48   1.966       .  S
O35         Cr48   2.019       .  S
O35          C36   1.266       .  A
C36          C59   1.498       .  S
O37         Cr46   2.012       .  S
O37          C45   1.267       .  A
O38         Cr46   1.973       .  S
O38          C39   1.258       .  A
C39         C118   1.511       .  S
C39          O40   1.266       .  A
O40         Cr47   2.007       .  S
O41         Cr47   1.980       .  S
O41          C42   1.259       .  A
C42          C87   1.496       .  S
C42          O43   1.264       .  A
O43         Cr48   2.007       .  S
O44         Cr48   1.975       .  S
O44          C45   1.261       .  A
C45          C73   1.476       .  S
Cr46         O49   1.762       .  S
Cr47         O49   1.765       .  S
Cr48         O49   1.770       .  S
C50          C51   1.414   1_556  A
C50         C239   1.405       .  A
C50         C146   1.500       .  S
C51          C52   1.411       .  A
C51          H56   1.083       .  S
C52          C53   1.407   1_554  A
C52          C76   1.508       .  S
C53         C238   1.397       .  A
C53          H57   1.083       .  S
C54          C55   1.400       .  A
C54         C237   1.397       .  A
C54          C62   1.486       .  S
C55         C234   1.405       .  A
C55          H58   1.083       .  S
C59          C60   1.422       .  A
C59          C64   1.418       .  A
C60          C61   1.416       .  A
C60          C65   1.450       .  S
C61          C62   1.409       .  A
C61          C68   1.450       .  S
C62          C63   1.411       .  A
C63          C64   1.406       .  A
C63          C66   1.453       .  S
C64          C67   1.453       .  S
C65          N72   1.157       .  T
C66          N71   1.157       .  T
C67          N69   1.157       .  T
C68          N70   1.157       .  T
C73          C74   1.406       .  A
C73          C78   1.406       .  A
C74          C75   1.414       .  A
C74          C79   1.453       .  S
C75          C76   1.423       .  A
C75          C82   1.446       .  S
C76          C77   1.423       .  A
C77          C78   1.409       .  A
C77          C80   1.453       .  S
C78          C81   1.452       .  S
C79          N86   1.158       .  T
C80         N269   1.157       .  T
C81          N83   1.157       .  T
C82          N84   1.156       .  T
N85         C264   1.157       .  T
C87          C88   1.420       .  A
C87          C92   1.420       .  A
C88          C89   1.410       .  A
C88          C93   1.452       .  S
C89          C90   1.411       .  A
C89          C96   1.453       .  S
C90          C91   1.409       .  A
C91          C92   1.412       .  A
C91          C94   1.451       .  S
C92          C95   1.451       .  S
C93         N100   1.157       .  T
C94          N99   1.157       .  T
C95          N97   1.157       .  T
C96          N98   1.157       .  T
C101        C102   1.414       .  A
C101        C106   1.416       .  A
C102        C103   1.404       .  A
C102        C107   1.452       .  S
C103        C104   1.418       .  A
C103        C110   1.454       .  S
C104        C105   1.416       .  A
C105        C106   1.415       .  A
C105        C108   1.450       .  S
C106        C109   1.452       .  S
C107        N114   1.157       .  T
C108        N113   1.157       .  T
C109        N111   1.158       .  T
C110        N296   1.157       .  T
N112        C294   1.157       .  T
C115        C116   1.406       .  A
C115        C120   1.408       .  A
C116        C117   1.414       .  A
C116        C121   1.452       .  S
C117        C118   1.429       .  A
C117        C124   1.452       .  S
C118        C119   1.426       .  A
C119        C120   1.409       .  A
C119        C122   1.452       .  S
C120        C123   1.453       .  S
C121        N128   1.157       .  T
C122        N127   1.158       .  T
C123        N125   1.157       .  T
C124        N126   1.158       .  T
C129        C130   1.425       .  A
C129        C134   1.427       .  A
C130        C131   1.412       .  A
C130        C135   1.452       .  S
C131        C132   1.408       .  A
C131        C138   1.451       .  S
C132        C133   1.407       .  A
C133        C134   1.412       .  A
C133        C136   1.453       .  S
C134        C137   1.452       .  S
C135        N142   1.158       .  T
C136        N141   1.157       .  T
C137        N139   1.158       .  T
C138        N140   1.157       .  T
C143        C148   1.415   1_556  A
C143        C328   1.415       .  A
C144        C145   1.414       .  A
C144        C327   1.415       .  A
C144        C149   1.452       .  S
C145        C330   1.419       .  A
C145        C152   1.449       .  S
C146        C147   1.412   1_556  A
C146        C329   1.419       .  A
C147        C148   1.408       .  A
C147        C150   1.450       .  S
C148        C151   1.450   1_545  S
C149        N156   1.157       .  T
C150        N155   1.157   1_545  T
C151        N521   1.157       .  T
C152        N154   1.157       .  T
N153        C519   1.157       .  T
C157        C158   1.428       .  A
C157        C346   1.424   1_554  A
C158        C159   1.412       .  A
C158        C163   1.449       .  S
C159        C160   1.405       .  A
C159        C166   1.452       .  S
C160        C345   1.406   1_554  A
C161        C162   1.411       .  A
C161        C344   1.406       .  A
C161        C164   1.451       .  S
C162        C341   1.424       .  A
C162        C165   1.450       .  S
C163        N170   1.157       .  T
C164        N169   1.157       .  T
C165        N167   1.157       .  T
C166        N168   1.157       .  T
C171        C172   1.418       .  A
C171        C360   1.417   1_554  A
C171        C185   1.500   1_554  S
C172        C173   1.412       .  A
C172        C913   1.451       .  S
C173        C174   1.416       .  A
C173        C916   1.452       .  S
C174        C359   1.415   1_554  A
C175        C176   1.409       .  A
C175        C358   1.415       .  A
C175        C178   1.453       .  S
C176        C355   1.417       .  A
C176        C179   1.450       .  S
C177        C908   1.451   1_455  S
C177        N184   1.157       .  T
C178        N183   1.157       .  T
C179        N181   1.157   1_545  T
C180        C909   1.452       .  S
C180        N182   1.157   1_655  T
C185        C554   1.407   1_546  A
C185        C926   1.408       .  A
C186        C553   1.407   1_554  A
C186        H191   1.083       .  S
C187        C924   1.400       .  A
C187        C344   1.484       .  S
C188        C923   1.400   1_455  A
C188        C557   1.403       .  A
C188        H192   1.084       .  S
C189        C556   1.403   1_545  A
C189        C327   1.497       .  S
C190        C921   1.408   1_455  A
C190        H193   1.083       .  S
C194        C199   1.413       .  A
C194        C341   1.514       .  S
C195        C196   1.404       .  A
C195        H200   1.082       .  S
C196        C316   1.486       .  S
C197        C198   1.394       .  A
C197        H201   1.084       .  S
C198        C199   1.404       .  A
C198        C299   1.484       .  S
C199        H202   1.081       .  S
C203        C208   1.407       .  A
C203        C358   1.498       .  S
C204        C205   1.404       .  A
C204        H209   1.082       .  S
C205        C288   1.497       .  S
C206        C207   1.397       .  A
C206        H210   1.084       .  S
C207        C208   1.401       .  A
C207        C274   1.485       .  S
C208        H211   1.084       .  S
O212       Cr230   1.972       .  S
O212        C220   1.259       .  A
O213       Cr230   2.008       .  S
O213        C214   1.266       .  A
C214        C313   1.508       .  S
C214        O215   1.257       .  A
O215       Cr231   1.968       .  S
O216       Cr231   2.013       .  S
O216        C217   1.269       .  A
C217        C285   1.489       .  S
C217        O218   1.262       .  A
O218       Cr232   1.966       .  S
O219       Cr232   2.019       .  S
O219        C220   1.266       .  A
C220        C243   1.498       .  S
O221       Cr230   2.012       .  S
O221        C229   1.267       .  A
O222       Cr230   1.973       .  S
O222        C223   1.258       .  A
C223        C302   1.511       .  S
C223        O224   1.266       .  A
O224       Cr231   2.007       .  S
O225       Cr231   1.980       .  S
O225        C226   1.259       .  A
C226        C271   1.496       .  S
C226        O227   1.264       .  A
O227       Cr232   2.007       .  S
O228       Cr232   1.975       .  S
O228        C229   1.261       .  A
C229        C257   1.476       .  S
Cr230       O233   1.762       .  S
Cr231       O233   1.765       .  S
Cr232       O233   1.770       .  S
C234        C235   1.414       .  A
C234        C330   1.500       .  S
C235        C236   1.411       .  A
C235        H240   1.083       .  S
C236        C237   1.407       .  A
C236        C260   1.508       .  S
C237        H241   1.083       .  S
C238        C239   1.400       .  A
C238        C246   1.486       .  S
C239        H242   1.083       .  S
C243        C244   1.422       .  A
C243        C248   1.418       .  A
C244        C245   1.416       .  A
C244        C249   1.450       .  S
C245        C246   1.409       .  A
C245        C252   1.450       .  S
C246        C247   1.411       .  A
C247        C248   1.406       .  A
C247        C250   1.453       .  S
C248        C251   1.453       .  S
C249        N256   1.157       .  T
C250        N255   1.157       .  T
C251        N253   1.157       .  T
C252        N254   1.157       .  T
C257        C258   1.406       .  A
C257        C262   1.406       .  A
C258        C259   1.414       .  A
C258        C263   1.453       .  S
C259        C260   1.423       .  A
C259        C266   1.446       .  S
C260        C261   1.423       .  A
C261        C262   1.409       .  A
C261        C264   1.453       .  S
C262        C265   1.452       .  S
C263        N270   1.158       .  T
C265        N267   1.157       .  T
C266        N268   1.156       .  T
C271        C272   1.420       .  A
C271        C276   1.420       .  A
C272        C273   1.410       .  A
C272        C277   1.452       .  S
C273        C274   1.411       .  A
C273        C280   1.453       .  S
C274        C275   1.409       .  A
C275        C276   1.412       .  A
C275        C278   1.451       .  S
C276        C279   1.451       .  S
C277        N284   1.157       .  T
C278        N283   1.157       .  T
C279        N281   1.157       .  T
C280        N282   1.157       .  T
C285        C286   1.414       .  A
C285        C290   1.416       .  A
C286        C287   1.404       .  A
C286        C291   1.452       .  S
C287        C288   1.418       .  A
C287        C294   1.454       .  S
C288        C289   1.416       .  A
C289        C290   1.415       .  A
C289        C292   1.450       .  S
C290        C293   1.452       .  S
C291        N298   1.157       .  T
C292        N297   1.157       .  T
C293        N295   1.158       .  T
C299        C300   1.406       .  A
C299        C304   1.408       .  A
C300        C301   1.414       .  A
C300        C305   1.452       .  S
C301        C302   1.429       .  A
C301        C308   1.452       .  S
C302        C303   1.426       .  A
C303        C304   1.409       .  A
C303        C306   1.452       .  S
C304        C307   1.453       .  S
C305        N312   1.157       .  T
C306        N311   1.158       .  T
C307        N309   1.157       .  T
C308        N310   1.158       .  T
C313        C314   1.425       .  A
C313        C318   1.427       .  A
C314        C315   1.412       .  A
C314        C319   1.452       .  S
C315        C316   1.408       .  A
C315        C322   1.451       .  S
C316        C317   1.407       .  A
C317        C318   1.412       .  A
C317        C320   1.453       .  S
C318        C321   1.452       .  S
C319        N326   1.158       .  T
C320        N325   1.157       .  T
C321        N323   1.158       .  T
C322        N324   1.157       .  T
C327        C332   1.415       .  A
C328        C329   1.414       .  A
C328        C333   1.452       .  S
C329        C336   1.449       .  S
C330        C331   1.412       .  A
C331        C332   1.408       .  A
C331        C334   1.450       .  S
C332        C335   1.450   1_545  S
C333        N340   1.157       .  T
C334        N339   1.157   1_545  T
C335        N705   1.157       .  T
C336        N338   1.157       .  T
N337        C703   1.157       .  T
C341        C342   1.428       .  A
C342        C343   1.412       .  A
C342        C347   1.449       .  S
C343        C344   1.405       .  A
C343        C350   1.452       .  S
C345        C346   1.411       .  A
C345        C348   1.451       .  S
C346        C349   1.450       .  S
C347        N354   1.157       .  T
C348        N353   1.157       .  T
C349        N351   1.157       .  T
C350        N352   1.157       .  T
C355        C356   1.418       .  A
C356        C357   1.412       .  A
C356       C1097   1.451       .  S
C357        C358   1.416       .  A
C357       C1100   1.452       .  S
C359        C360   1.409       .  A
C359        C362   1.453       .  S
C360        C363   1.450       .  S
C361       C1092   1.451   1_455  S
C361        N368   1.157       .  T
C362        N367   1.157       .  T
C363        N365   1.157   1_545  T
C364       C1093   1.452       .  S
C364        N366   1.157   1_655  T
C369       C1110   1.408       .  A
C369        C723   1.500       .  S
C370        C555   1.400       .  A
C370        H375   1.083       .  S
C371        C554   1.400       .  A
C371       C1108   1.400   1_554  A
C371        C528   1.484       .  S
C372       C1107   1.400   1_456  A
C372        H376   1.084       .  S
C373        C558   1.407       .  A
C373        C511   1.497       .  S
C374       C1105   1.408   1_455  A
C374        C557   1.407       .  A
C374        H377   1.083       .  S
C378        C563   1.416   1_554  A
C378        C383   1.413       .  A
C378        C525   1.514       .  S
C379        C562   1.416       .  A
C379        C380   1.404       .  A
C379        H384   1.082       .  S
C380        C565   1.395       .  A
C380        C500   1.486       .  S
C381        C564   1.395   1_554  A
C381        C382   1.394       .  A
C381        H385   1.084       .  S
C382        C383   1.404       .  A
C382        C483   1.484       .  S
C383        H386   1.081       .  S
C387        C572   1.409   1_554  A
C387        C392   1.407       .  A
C387        C542   1.498       .  S
C388        C571   1.409       .  A
C388        C389   1.404       .  A
C388        H393   1.082       .  S
C389        C574   1.402       .  A
C389        C472   1.497       .  S
C390        C573   1.402   1_554  A
C390        C391   1.397       .  A
C390        H394   1.084       .  S
C391        C392   1.401       .  A
C391        C458   1.485       .  S
C392        H395   1.084       .  S
O396       Cr414   1.972       .  S
O396        C404   1.259       .  A
O397       Cr414   2.008       .  S
O397        C398   1.266       .  A
C398        C497   1.508       .  S
C398        O399   1.257       .  A
O399       Cr415   1.968       .  S
O400       Cr415   2.013       .  S
O400        C401   1.269       .  A
C401        C469   1.489       .  S
C401        O402   1.262       .  A
O402       Cr416   1.966       .  S
O403       Cr416   2.019       .  S
O403        C404   1.266       .  A
C404        C427   1.498       .  S
O405       Cr414   2.012       .  S
O405        C413   1.267       .  A
O406       Cr414   1.973       .  S
O406        C407   1.258       .  A
C407        C486   1.511       .  S
C407        O408   1.266       .  A
O408       Cr415   2.007       .  S
O409       Cr415   1.980       .  S
O409        C410   1.259       .  A
C410        C455   1.496       .  S
C410        O411   1.264       .  A
O411       Cr416   2.007       .  S
O412       Cr416   1.975       .  S
O412        C413   1.261       .  A
C413        C441   1.476       .  S
Cr414       O417   1.762       .  S
Cr415       O417   1.765       .  S
Cr416       O417   1.770       .  S
C418        C419   1.414   1_556  A
C418        C607   1.405       .  A
C418        C514   1.500       .  S
C419        C420   1.411       .  A
C419        H424   1.083       .  S
C420        C421   1.407   1_554  A
C420        C444   1.508       .  S
C421        C606   1.397       .  A
C421        H425   1.083       .  S
C422        C605   1.397       .  A
C422        C423   1.400       .  A
C422        C430   1.486       .  S
C423        C602   1.405       .  A
C423        H426   1.083       .  S
C427        C428   1.422       .  A
C427        C432   1.418       .  A
C428        C429   1.416       .  A
C428        C433   1.450       .  S
C429        C430   1.409       .  A
C429        C436   1.450       .  S
C430        C431   1.411       .  A
C431        C432   1.406       .  A
C431        C434   1.453       .  S
C432        C435   1.453       .  S
C433        N440   1.157       .  T
C434        N439   1.157       .  T
C435        N437   1.157       .  T
C436        N438   1.157       .  T
C441        C442   1.406       .  A
C441        C446   1.406       .  A
C442        C443   1.414       .  A
C442        C447   1.453       .  S
C443        C444   1.423       .  A
C443        C450   1.446       .  S
C444        C445   1.423       .  A
C445        C446   1.409       .  A
C445        C448   1.453       .  S
C446        C449   1.452       .  S
C447        N454   1.158       .  T
C448        N637   1.157       .  T
C449        N451   1.157       .  T
C450        N452   1.156       .  T
N453        C632   1.157       .  T
C455        C456   1.420       .  A
C455        C460   1.420       .  A
C456        C457   1.410       .  A
C456        C461   1.452       .  S
C457        C458   1.411       .  A
C457        C464   1.453       .  S
C458        C459   1.409       .  A
C459        C460   1.412       .  A
C459        C462   1.451       .  S
C460        C463   1.451       .  S
C461        N468   1.157       .  T
C462        N467   1.157       .  T
C463        N465   1.157       .  T
C464        N466   1.157       .  T
C469        C470   1.414       .  A
C469        C474   1.416       .  A
C470        C471   1.404       .  A
C470        C475   1.452       .  S
C471        C472   1.418       .  A
C471        C478   1.454       .  S
C472        C473   1.416       .  A
C473        C474   1.415       .  A
C473        C476   1.450       .  S
C474        C477   1.452       .  S
C475        N482   1.157       .  T
C476        N481   1.157       .  T
C477        N479   1.158       .  T
C478        N664   1.157       .  T
N480        C662   1.157       .  T
C483        C484   1.406       .  A
C483        C488   1.408       .  A
C484        C485   1.414       .  A
C484        C489   1.452       .  S
C485        C486   1.429       .  A
C485        C492   1.452       .  S
C486        C487   1.426       .  A
C487        C488   1.409       .  A
C487        C490   1.452       .  S
C488        C491   1.453       .  S
C489        N496   1.157       .  T
C490        N495   1.158       .  T
C491        N493   1.157       .  T
C492        N494   1.158       .  T
C497        C498   1.425       .  A
C497        C502   1.427       .  A
C498        C499   1.412       .  A
C498        C503   1.452       .  S
C499        C500   1.408       .  A
C499        C506   1.451       .  S
C500        C501   1.407       .  A
C501        C502   1.412       .  A
C501        C504   1.453       .  S
C502        C505   1.452       .  S
C503        N510   1.158       .  T
C504        N509   1.157       .  T
C505        N507   1.158       .  T
C506        N508   1.157       .  T
C511        C696   1.415       .  A
C511        C516   1.415   1_556  A
C512        C695   1.415       .  A
C512        C513   1.414       .  A
C512        C517   1.452       .  S
C513        C698   1.419       .  A
C513        C520   1.449       .  S
C514        C697   1.419       .  A
C514        C515   1.412   1_556  A
C515        C516   1.408       .  A
C515        C518   1.450       .  S
C516        C519   1.450       .  S
C517        N524   1.157       .  T
C518        N523   1.157       .  T
C520        N522   1.157       .  T
C525        C526   1.428       .  A
C525        C714   1.424   1_554  A
C526        C527   1.412       .  A
C526        C531   1.449       .  S
C527        C528   1.405       .  A
C527        C534   1.452       .  S
C528        C713   1.406   1_554  A
C529        C712   1.406       .  A
C529        C530   1.411       .  A
C529        C532   1.451       .  S
C530        C709   1.424       .  A
C530        C533   1.450       .  S
C531        N538   1.157       .  T
C532        N537   1.157       .  T
C533        N535   1.157       .  T
C534        N536   1.157       .  T
C539        C540   1.418       .  A
C539        C728   1.417   1_554  A
C539        C553   1.500   1_554  S
C540        C541   1.412       .  A
C540       C1281   1.451       .  S
C541        C542   1.416       .  A
C541       C1284   1.452       .  S
C542        C727   1.415   1_554  A
C543        C726   1.415       .  A
C543        C544   1.409       .  A
C543        C546   1.453       .  S
C544        C723   1.417       .  A
C544        C547   1.450       .  S
C545       C1276   1.451   1_455  S
C545        N552   1.157       .  T
C546        N551   1.157       .  T
C547        N549   1.157       .  T
C548       C1277   1.452       .  S
C548        N550   1.157   1_655  T
C553       C1294   1.408       .  A
C554        H559   1.083       .  S
C555       C1292   1.400       .  A
C555        C712   1.484       .  S
C556       C1291   1.400   1_455  A
C556        H560   1.084       .  S
C557        C695   1.497       .  S
C558       C1289   1.408   1_455  A
C558        H561   1.083       .  S
C562        C567   1.413       .  A
C562        C709   1.514       .  S
C563        C564   1.404       .  A
C563        H568   1.082       .  S
C564        C684   1.486       .  S
C565        C566   1.394       .  A
C565        H569   1.084       .  S
C566        C567   1.404       .  A
C566        C667   1.484       .  S
C567        H570   1.081       .  S
C571        C576   1.407       .  A
C571        C726   1.498       .  S
C572        C573   1.404       .  A
C572        H577   1.082       .  S
C573        C656   1.497       .  S
C574        C575   1.397       .  A
C574        H578   1.084       .  S
C575        C576   1.401       .  A
C575        C642   1.485       .  S
C576        H579   1.084       .  S
O580       Cr598   1.972       .  S
O580        C588   1.259       .  A
O581       Cr598   2.008       .  S
O581        C582   1.266       .  A
C582        C681   1.508       .  S
C582        O583   1.257       .  A
O583       Cr599   1.968       .  S
O584       Cr599   2.013       .  S
O584        C585   1.269       .  A
C585        C653   1.489       .  S
C585        O586   1.262       .  A
O586       Cr600   1.966       .  S
O587       Cr600   2.019       .  S
O587        C588   1.266       .  A
C588        C611   1.498       .  S
O589       Cr598   2.012       .  S
O589        C597   1.267       .  A
O590       Cr598   1.973       .  S
O590        C591   1.258       .  A
C591        C670   1.511       .  S
C591        O592   1.266       .  A
O592       Cr599   2.007       .  S
O593       Cr599   1.980       .  S
O593        C594   1.259       .  A
C594        C639   1.496       .  S
C594        O595   1.264       .  A
O595       Cr600   2.007       .  S
O596       Cr600   1.975       .  S
O596        C597   1.261       .  A
C597        C625   1.476       .  S
Cr598       O601   1.762       .  S
Cr599       O601   1.765       .  S
Cr600       O601   1.770       .  S
C602        C603   1.414       .  A
C602        C698   1.500       .  S
C603        C604   1.411       .  A
C603        H608   1.083       .  S
C604        C605   1.407       .  A
C604        C628   1.508       .  S
C605        H609   1.083       .  S
C606        C607   1.400       .  A
C606        C614   1.486       .  S
C607        H610   1.083       .  S
C611        C612   1.422       .  A
C611        C616   1.418       .  A
C612        C613   1.416       .  A
C612        C617   1.450       .  S
C613        C614   1.409       .  A
C613        C620   1.450       .  S
C614        C615   1.411       .  A
C615        C616   1.406       .  A
C615        C618   1.453       .  S
C616        C619   1.453       .  S
C617        N624   1.157       .  T
C618        N623   1.157       .  T
C619        N621   1.157       .  T
C620        N622   1.157       .  T
C625        C626   1.406       .  A
C625        C630   1.406       .  A
C626        C627   1.414       .  A
C626        C631   1.453       .  S
C627        C628   1.423       .  A
C627        C634   1.446       .  S
C628        C629   1.423       .  A
C629        C630   1.409       .  A
C629        C632   1.453       .  S
C630        C633   1.452       .  S
C631        N638   1.158       .  T
C633        N635   1.157       .  T
C634        N636   1.156       .  T
C639        C640   1.420       .  A
C639        C644   1.420       .  A
C640        C641   1.410       .  A
C640        C645   1.452       .  S
C641        C642   1.411       .  A
C641        C648   1.453       .  S
C642        C643   1.409       .  A
C643        C644   1.412       .  A
C643        C646   1.451       .  S
C644        C647   1.451       .  S
C645        N652   1.157       .  T
C646        N651   1.157       .  T
C647        N649   1.157       .  T
C648        N650   1.157       .  T
C653        C654   1.414       .  A
C653        C658   1.416       .  A
C654        C655   1.404       .  A
C654        C659   1.452       .  S
C655        C656   1.418       .  A
C655        C662   1.454       .  S
C656        C657   1.416       .  A
C657        C658   1.415       .  A
C657        C660   1.450       .  S
C658        C661   1.452       .  S
C659        N666   1.157       .  T
C660        N665   1.157       .  T
C661        N663   1.158       .  T
C667        C668   1.406       .  A
C667        C672   1.408       .  A
C668        C669   1.414       .  A
C668        C673   1.452       .  S
C669        C670   1.429       .  A
C669        C676   1.452       .  S
C670        C671   1.426       .  A
C671        C672   1.409       .  A
C671        C674   1.452       .  S
C672        C675   1.453       .  S
C673        N680   1.157       .  T
C674        N679   1.158       .  T
C675        N677   1.157       .  T
C676        N678   1.158       .  T
C681        C682   1.425       .  A
C681        C686   1.427       .  A
C682        C683   1.412       .  A
C682        C687   1.452       .  S
C683        C684   1.408       .  A
C683        C690   1.451       .  S
C684        C685   1.407       .  A
C685        C686   1.412       .  A
C685        C688   1.453       .  S
C686        C689   1.452       .  S
C687        N694   1.158       .  T
C688        N693   1.157       .  T
C689        N691   1.158       .  T
C690        N692   1.157       .  T
C695        C700   1.415       .  A
C696        C697   1.414       .  A
C696        C701   1.452       .  S
C697        C704   1.449       .  S
C698        C699   1.412       .  A
C699        C700   1.408       .  A
C699        C702   1.450       .  S
C700        C703   1.450       .  S
C701        N708   1.157       .  T
C702        N707   1.157       .  T
C704        N706   1.157       .  T
C709        C710   1.428       .  A
C710        C711   1.412       .  A
C710        C715   1.449       .  S
C711        C712   1.405       .  A
C711        C718   1.452       .  S
C713        C714   1.411       .  A
C713        C716   1.451       .  S
C714        C717   1.450       .  S
C715        N722   1.157       .  T
C716        N721   1.157       .  T
C717        N719   1.157       .  T
C718        N720   1.157       .  T
C723        C724   1.418       .  A
C724        C725   1.412       .  A
C724       C1465   1.451       .  S
C725        C726   1.416       .  A
C725       C1468   1.452       .  S
C727        C728   1.409       .  A
C727        C730   1.453       .  S
C728        C731   1.450       .  S
C729       C1460   1.451   1_455  S
C729        N736   1.157       .  T
C730        N735   1.157       .  T
C731        N733   1.157       .  T
C732       C1461   1.452       .  S
C732        N734   1.157   1_655  T
C737       C1106   1.407   1_545  A
C737       C1091   1.500       .  S
C738       C1105   1.407       .  A
C738        C923   1.400       .  A
C738        H743   1.083       .  S
C739        C922   1.400       .  A
C739        C896   1.484       .  S
C740       C1109   1.404       .  A
C740        H744   1.084       .  S
C741       C1108   1.403   1_545  A
C741        C926   1.407       .  A
C741        C879   1.497       .  S
C742        C925   1.407       .  A
C742        H745   1.083       .  S
C746        C931   1.416   1_554  A
C746        C751   1.413       .  A
C746        C893   1.514       .  S
C747        C930   1.416       .  A
C747        C748   1.404       .  A
C747        H752   1.082       .  S
C748        C933   1.395       .  A
C748        C868   1.486       .  S
C749        C932   1.395   1_554  A
C749        C750   1.394       .  A
C749        H753   1.084       .  S
C750        C751   1.404       .  A
C750        C851   1.484       .  S
C751        H754   1.081       .  S
C755        C940   1.409   1_554  A
C755        C760   1.407       .  A
C755        C910   1.498       .  S
C756        C939   1.409       .  A
C756        C757   1.404       .  A
C756        H761   1.082       .  S
C757        C942   1.402       .  A
C757        C840   1.497       .  S
C758        C941   1.402   1_554  A
C758        C759   1.397       .  A
C758        H762   1.084       .  S
C759        C760   1.401       .  A
C759        C826   1.485       .  S
C760        H763   1.084       .  S
O764       Cr782   1.972       .  S
O764        C772   1.259       .  A
O765       Cr782   2.008       .  S
O765        C766   1.266       .  A
C766        C865   1.508       .  S
C766        O767   1.257       .  A
O767       Cr783   1.968       .  S
O768       Cr783   2.013       .  S
O768        C769   1.269       .  A
C769        C837   1.489       .  S
C769        O770   1.262       .  A
O770       Cr784   1.966       .  S
O771       Cr784   2.019       .  S
O771        C772   1.266       .  A
C772        C795   1.498       .  S
O773       Cr782   2.012       .  S
O773        C781   1.267       .  A
O774       Cr782   1.973       .  S
O774        C775   1.258       .  A
C775        C854   1.511       .  S
C775        O776   1.266       .  A
O776       Cr783   2.007       .  S
O777       Cr783   1.980       .  S
O777        C778   1.259       .  A
C778        C823   1.496       .  S
C778        O779   1.264       .  A
O779       Cr784   2.007       .  S
O780       Cr784   1.975       .  S
O780        C781   1.261       .  A
C781        C809   1.476       .  S
Cr782       O785   1.762       .  S
Cr783       O785   1.765       .  S
Cr784       O785   1.770       .  S
C786        C787   1.414   1_556  A
C786        C975   1.405       .  A
C786        C882   1.499       .  S
C787        C788   1.411       .  A
C787        H792   1.083       .  S
C788        C789   1.407   1_554  A
C788        C812   1.508       .  S
C789        C974   1.397       .  A
C789        H793   1.083       .  S
C790        C973   1.397       .  A
C790        C791   1.400       .  A
C790        C798   1.486       .  S
C791        C970   1.405       .  A
C791        H794   1.083       .  S
C795        C796   1.422       .  A
C795        C800   1.418       .  A
C796        C797   1.416       .  A
C796        C801   1.450       .  S
C797        C798   1.409       .  A
C797        C804   1.450       .  S
C798        C799   1.411       .  A
C799        C800   1.406       .  A
C799        C802   1.453       .  S
C800        C803   1.453       .  S
C801        N808   1.157       .  T
C802        N807   1.157       .  T
C803        N805   1.157       .  T
C804        N806   1.157       .  T
C809        C810   1.406       .  A
C809        C814   1.406       .  A
C810        C811   1.414       .  A
C810        C815   1.453       .  S
C811        C812   1.423       .  A
C811        C818   1.446       .  S
C812        C813   1.423       .  A
C813        C814   1.409       .  A
C813        C816   1.453       .  S
C814        C817   1.452       .  S
C815        N822   1.158       .  T
C816       N1005   1.157       .  T
C817        N819   1.157       .  T
C818        N820   1.156       .  T
N821       C1000   1.157       .  T
C823        C824   1.420       .  A
C823        C828   1.420       .  A
C824        C825   1.410       .  A
C824        C829   1.452       .  S
C825        C826   1.411       .  A
C825        C832   1.453       .  S
C826        C827   1.409       .  A
C827        C828   1.412       .  A
C827        C830   1.451       .  S
C828        C831   1.451       .  S
C829        N836   1.157       .  T
C830        N835   1.157       .  T
C831        N833   1.157       .  T
C832        N834   1.157       .  T
C837        C838   1.414       .  A
C837        C842   1.416       .  A
C838        C839   1.404       .  A
C838        C843   1.452       .  S
C839        C840   1.418       .  A
C839        C846   1.454       .  S
C840        C841   1.416       .  A
C841        C842   1.415       .  A
C841        C844   1.450       .  S
C842        C845   1.452       .  S
C843        N850   1.157       .  T
C844        N849   1.157       .  T
C845        N847   1.158       .  T
C846       N1032   1.157       .  T
N848       C1030   1.157       .  T
C851        C852   1.406       .  A
C851        C856   1.408       .  A
C852        C853   1.414       .  A
C852        C857   1.452       .  S
C853        C854   1.429       .  A
C853        C860   1.452       .  S
C854        C855   1.426       .  A
C855        C856   1.409       .  A
C855        C858   1.452       .  S
C856        C859   1.453       .  S
C857        N864   1.157       .  T
C858        N863   1.158       .  T
C859        N861   1.157       .  T
C860        N862   1.158       .  T
C865        C866   1.425       .  A
C865        C870   1.427       .  A
C866        C867   1.412       .  A
C866        C871   1.452       .  S
C867        C868   1.408       .  A
C867        C874   1.451       .  S
C868        C869   1.407       .  A
C869        C870   1.412       .  A
C869        C872   1.453       .  S
C870        C873   1.452       .  S
C871        N878   1.158       .  T
C872        N877   1.157       .  T
C873        N875   1.158       .  T
C874        N876   1.157       .  T
C879       C1064   1.415       .  A
C879        C884   1.415   1_556  A
C880       C1063   1.415       .  A
C880        C881   1.414       .  A
C880        C885   1.452       .  S
C881       C1066   1.419       .  A
C881        C888   1.449       .  S
C882       C1065   1.419       .  A
C882        C883   1.412   1_556  A
C883        C884   1.408       .  A
C883        C886   1.450       .  S
C884        C887   1.450   1_545  S
C885        N892   1.157       .  T
C886        N891   1.157   1_545  T
C887       N1257   1.157       .  T
C888        N890   1.157       .  T
N889       C1255   1.157       .  T
C893        C894   1.428       .  A
C893       C1082   1.424   1_554  A
C894        C895   1.412       .  A
C894        C899   1.449       .  S
C895        C896   1.405       .  A
C895        C902   1.452       .  S
C896       C1081   1.406   1_554  A
C897       C1080   1.406       .  A
C897        C898   1.411       .  A
C897        C900   1.451       .  S
C898       C1077   1.424       .  A
C898        C901   1.450       .  S
C899        N906   1.157       .  T
C900        N905   1.157       .  T
C901        N903   1.157       .  T
C902        N904   1.157       .  T
C907        C908   1.418       .  A
C907       C1096   1.417   1_554  A
C907        C921   1.500   1_554  S
C908        C909   1.412       .  A
C909        C910   1.416       .  A
C910       C1095   1.415   1_554  A
C911       C1094   1.415       .  A
C911        C912   1.409       .  A
C911        C914   1.453       .  S
C912       C1091   1.417       .  A
C912        C915   1.450       .  S
C913        N920   1.157       .  T
C914        N919   1.157       .  T
C915        N917   1.157   1_545  T
C916        N918   1.157       .  T
C921       C1290   1.407   1_546  A
C922       C1289   1.407   1_554  A
C922        H927   1.083       .  S
C923       C1080   1.484       .  S
C924       C1293   1.404       .  A
C924        H928   1.084       .  S
C925       C1292   1.404   1_545  A
C925       C1063   1.497       .  S
C926        H929   1.083       .  S
C930        C935   1.413       .  A
C930       C1077   1.514       .  S
C931        C932   1.404       .  A
C931        H936   1.082       .  S
C932       C1052   1.486       .  S
C933        C934   1.394       .  A
C933        H937   1.084       .  S
C934        C935   1.404       .  A
C934       C1035   1.484       .  S
C935        H938   1.081       .  S
C939        C944   1.407       .  A
C939       C1094   1.498       .  S
C940        C941   1.404       .  A
C940        H945   1.082       .  S
C941       C1024   1.497       .  S
C942        C943   1.397       .  A
C942        H946   1.084       .  S
C943        C944   1.401       .  A
C943       C1010   1.485       .  S
C944        H947   1.084       .  S
O948       Cr966   1.972       .  S
O948        C956   1.259       .  A
O949       Cr966   2.008       .  S
O949        C950   1.266       .  A
C950       C1049   1.508       .  S
C950        O951   1.257       .  A
O951       Cr967   1.968       .  S
O952       Cr967   2.013       .  S
O952        C953   1.269       .  A
C953       C1021   1.489       .  S
C953        O954   1.262       .  A
O954       Cr968   1.966       .  S
O955       Cr968   2.019       .  S
O955        C956   1.266       .  A
C956        C979   1.498       .  S
O957       Cr966   2.012       .  S
O957        C965   1.267       .  A
O958       Cr966   1.973       .  S
O958        C959   1.258       .  A
C959       C1038   1.511       .  S
C959        O960   1.266       .  A
O960       Cr967   2.007       .  S
O961       Cr967   1.980       .  S
O961        C962   1.259       .  A
C962       C1007   1.496       .  S
C962        O963   1.264       .  A
O963       Cr968   2.007       .  S
O964       Cr968   1.975       .  S
O964        C965   1.261       .  A
C965        C993   1.476       .  S
Cr966       O969   1.762       .  S
Cr967       O969   1.765       .  S
Cr968       O969   1.770       .  S
C970        C971   1.414       .  A
C970       C1066   1.500       .  S
C971        C972   1.411       .  A
C971        H976   1.083       .  S
C972        C973   1.407       .  A
C972        C996   1.508       .  S
C973        H977   1.083       .  S
C974        C975   1.400       .  A
C974        C982   1.486       .  S
C975        H978   1.083       .  S
C979        C980   1.422       .  A
C979        C984   1.418       .  A
C980        C981   1.416       .  A
C980        C985   1.450       .  S
C981        C982   1.409       .  A
C981        C988   1.450       .  S
C982        C983   1.411       .  A
C983        C984   1.406       .  A
C983        C986   1.453       .  S
C984        C987   1.453       .  S
C985        N992   1.157       .  T
C986        N991   1.157       .  T
C987        N989   1.157       .  T
C988        N990   1.157       .  T
C993        C994   1.406       .  A
C993        C998   1.406       .  A
C994        C995   1.414       .  A
C994        C999   1.453       .  S
C995        C996   1.423       .  A
C995       C1002   1.446       .  S
C996        C997   1.423       .  A
C997        C998   1.409       .  A
C997       C1000   1.453       .  S
C998       C1001   1.452       .  S
C999       N1006   1.158       .  T
C1001      N1003   1.157       .  T
C1002      N1004   1.156       .  T
C1007      C1008   1.420       .  A
C1007      C1012   1.420       .  A
C1008      C1009   1.410       .  A
C1008      C1013   1.452       .  S
C1009      C1010   1.411       .  A
C1009      C1016   1.453       .  S
C1010      C1011   1.409       .  A
C1011      C1012   1.412       .  A
C1011      C1014   1.451       .  S
C1012      C1015   1.451       .  S
C1013      N1020   1.157       .  T
C1014      N1019   1.157       .  T
C1015      N1017   1.157       .  T
C1016      N1018   1.157       .  T
C1021      C1022   1.414       .  A
C1021      C1026   1.416       .  A
C1022      C1023   1.404       .  A
C1022      C1027   1.452       .  S
C1023      C1024   1.418       .  A
C1023      C1030   1.454       .  S
C1024      C1025   1.416       .  A
C1025      C1026   1.415       .  A
C1025      C1028   1.450       .  S
C1026      C1029   1.452       .  S
C1027      N1034   1.157       .  T
C1028      N1033   1.157       .  T
C1029      N1031   1.158       .  T
C1035      C1036   1.406       .  A
C1035      C1040   1.408       .  A
C1036      C1037   1.414       .  A
C1036      C1041   1.452       .  S
C1037      C1038   1.429       .  A
C1037      C1044   1.452       .  S
C1038      C1039   1.426       .  A
C1039      C1040   1.409       .  A
C1039      C1042   1.452       .  S
C1040      C1043   1.453       .  S
C1041      N1048   1.157       .  T
C1042      N1047   1.158       .  T
C1043      N1045   1.157       .  T
C1044      N1046   1.158       .  T
C1049      C1050   1.425       .  A
C1049      C1054   1.427       .  A
C1050      C1051   1.412       .  A
C1050      C1055   1.452       .  S
C1051      C1052   1.408       .  A
C1051      C1058   1.451       .  S
C1052      C1053   1.407       .  A
C1053      C1054   1.412       .  A
C1053      C1056   1.453       .  S
C1054      C1057   1.452       .  S
C1055      N1062   1.158       .  T
C1056      N1061   1.157       .  T
C1057      N1059   1.158       .  T
C1058      N1060   1.157       .  T
C1063      C1068   1.415       .  A
C1064      C1065   1.414       .  A
C1064      C1069   1.452       .  S
C1065      C1072   1.449       .  S
C1066      C1067   1.412       .  A
C1067      C1068   1.408       .  A
C1067      C1070   1.450       .  S
C1068      C1071   1.450   1_545  S
C1069      N1076   1.157       .  T
C1070      N1075   1.157   1_545  T
C1071      N1441   1.157       .  T
C1072      N1074   1.157       .  T
N1073      C1439   1.157       .  T
C1077      C1078   1.428       .  A
C1078      C1079   1.412       .  A
C1078      C1083   1.449       .  S
C1079      C1080   1.405       .  A
C1079      C1086   1.452       .  S
C1081      C1082   1.411       .  A
C1081      C1084   1.451       .  S
C1082      C1085   1.450       .  S
C1083      N1090   1.157       .  T
C1084      N1089   1.157       .  T
C1085      N1087   1.157       .  T
C1086      N1088   1.157       .  T
C1091      C1092   1.418       .  A
C1092      C1093   1.412       .  A
C1093      C1094   1.416       .  A
C1095      C1096   1.409       .  A
C1095      C1098   1.453       .  S
C1096      C1099   1.450       .  S
C1097      N1104   1.157       .  T
C1098      N1103   1.157       .  T
C1099      N1101   1.157   1_545  T
C1100      N1102   1.157       .  T
C1105      C1459   1.500       .  S
C1106      C1291   1.400       .  A
C1106      H1111   1.083       .  S
C1107      C1290   1.400       .  A
C1107      C1264   1.484       .  S
C1108      H1112   1.084       .  S
C1109      C1294   1.407       .  A
C1109      C1247   1.497       .  S
C1110      C1293   1.407       .  A
C1110      H1113   1.083       .  S
C1114      C1299   1.416   1_554  A
C1114      C1119   1.413       .  A
C1114      C1261   1.514       .  S
C1115      C1298   1.416       .  A
C1115      C1116   1.404       .  A
C1115      H1120   1.082       .  S
C1116      C1301   1.395       .  A
C1116      C1236   1.486       .  S
C1117      C1300   1.395   1_554  A
C1117      C1118   1.394       .  A
C1117      H1121   1.084       .  S
C1118      C1119   1.404       .  A
C1118      C1219   1.484       .  S
C1119      H1122   1.081       .  S
C1123      C1308   1.409   1_554  A
C1123      C1128   1.407       .  A
C1123      C1278   1.498       .  S
C1124      C1307   1.409       .  A
C1124      C1125   1.404       .  A
C1124      H1129   1.082       .  S
C1125      C1310   1.402       .  A
C1125      C1208   1.497       .  S
C1126      C1309   1.402   1_554  A
C1126      C1127   1.397       .  A
C1126      H1130   1.084       .  S
C1127      C1128   1.401       .  A
C1127      C1194   1.485       .  S
C1128      H1131   1.084       .  S
O1132     Cr1150   1.972       .  S
O1132      C1140   1.259       .  A
O1133     Cr1150   2.008       .  S
O1133      C1134   1.266       .  A
C1134      C1233   1.508       .  S
C1134      O1135   1.257       .  A
O1135     Cr1151   1.968       .  S
O1136     Cr1151   2.013       .  S
O1136      C1137   1.269       .  A
C1137      C1205   1.489       .  S
C1137      O1138   1.262       .  A
O1138     Cr1152   1.966       .  S
O1139     Cr1152   2.019       .  S
O1139      C1140   1.266       .  A
C1140      C1163   1.498       .  S
O1141     Cr1150   2.012       .  S
O1141      C1149   1.267       .  A
O1142     Cr1150   1.973       .  S
O1142      C1143   1.258       .  A
C1143      C1222   1.511       .  S
C1143      O1144   1.266       .  A
O1144     Cr1151   2.007       .  S
O1145     Cr1151   1.980       .  S
O1145      C1146   1.259       .  A
C1146      C1191   1.496       .  S
C1146      O1147   1.264       .  A
O1147     Cr1152   2.007       .  S
O1148     Cr1152   1.975       .  S
O1148      C1149   1.261       .  A
C1149      C1177   1.476       .  S
Cr1150     O1153   1.762       .  S
Cr1151     O1153   1.765       .  S
Cr1152     O1153   1.770       .  S
C1154      C1155   1.414   1_556  A
C1154      C1343   1.405       .  A
C1154      C1250   1.500       .  S
C1155      C1156   1.411       .  A
C1155      H1160   1.083       .  S
C1156      C1157   1.407   1_554  A
C1156      C1180   1.508       .  S
C1157      C1342   1.397       .  A
C1157      H1161   1.083       .  S
C1158      C1341   1.397       .  A
C1158      C1159   1.400       .  A
C1158      C1166   1.486       .  S
C1159      C1338   1.405       .  A
C1159      H1162   1.083       .  S
C1163      C1164   1.422       .  A
C1163      C1168   1.418       .  A
C1164      C1165   1.416       .  A
C1164      C1169   1.450       .  S
C1165      C1166   1.409       .  A
C1165      C1172   1.450       .  S
C1166      C1167   1.411       .  A
C1167      C1168   1.406       .  A
C1167      C1170   1.453       .  S
C1168      C1171   1.453       .  S
C1169      N1176   1.157       .  T
C1170      N1175   1.157       .  T
C1171      N1173   1.157       .  T
C1172      N1174   1.157       .  T
C1177      C1178   1.406       .  A
C1177      C1182   1.406       .  A
C1178      C1179   1.414       .  A
C1178      C1183   1.453       .  S
C1179      C1180   1.423       .  A
C1179      C1186   1.446       .  S
C1180      C1181   1.423       .  A
C1181      C1182   1.409       .  A
C1181      C1184   1.453       .  S
C1182      C1185   1.452       .  S
C1183      N1190   1.158       .  T
C1184      N1373   1.157       .  T
C1185      N1187   1.157       .  T
C1186      N1188   1.156       .  T
N1189      C1368   1.157       .  T
C1191      C1192   1.420       .  A
C1191      C1196   1.420       .  A
C1192      C1193   1.410       .  A
C1192      C1197   1.452       .  S
C1193      C1194   1.411       .  A
C1193      C1200   1.453       .  S
C1194      C1195   1.409       .  A
C1195      C1196   1.412       .  A
C1195      C1198   1.451       .  S
C1196      C1199   1.451       .  S
C1197      N1204   1.157       .  T
C1198      N1203   1.157       .  T
C1199      N1201   1.157       .  T
C1200      N1202   1.157       .  T
C1205      C1206   1.414       .  A
C1205      C1210   1.416       .  A
C1206      C1207   1.404       .  A
C1206      C1211   1.452       .  S
C1207      C1208   1.418       .  A
C1207      C1214   1.454       .  S
C1208      C1209   1.416       .  A
C1209      C1210   1.415       .  A
C1209      C1212   1.450       .  S
C1210      C1213   1.452       .  S
C1211      N1218   1.157       .  T
C1212      N1217   1.157       .  T
C1213      N1215   1.158       .  T
C1214      N1400   1.157       .  T
N1216      C1398   1.157       .  T
C1219      C1220   1.406       .  A
C1219      C1224   1.408       .  A
C1220      C1221   1.414       .  A
C1220      C1225   1.452       .  S
C1221      C1222   1.429       .  A
C1221      C1228   1.452       .  S
C1222      C1223   1.426       .  A
C1223      C1224   1.409       .  A
C1223      C1226   1.452       .  S
C1224      C1227   1.453       .  S
C1225      N1232   1.157       .  T
C1226      N1231   1.158       .  T
C1227      N1229   1.157       .  T
C1228      N1230   1.158       .  T
C1233      C1234   1.425       .  A
C1233      C1238   1.427       .  A
C1234      C1235   1.412       .  A
C1234      C1239   1.452       .  S
C1235      C1236   1.408       .  A
C1235      C1242   1.451       .  S
C1236      C1237   1.407       .  A
C1237      C1238   1.412       .  A
C1237      C1240   1.453       .  S
C1238      C1241   1.452       .  S
C1239      N1246   1.158       .  T
C1240      N1245   1.157       .  T
C1241      N1243   1.158       .  T
C1242      N1244   1.157       .  T
C1247      C1432   1.415       .  A
C1247      C1252   1.415   1_556  A
C1248      C1431   1.415       .  A
C1248      C1249   1.414       .  A
C1248      C1253   1.452       .  S
C1249      C1434   1.419       .  A
C1249      C1256   1.449       .  S
C1250      C1433   1.419       .  A
C1250      C1251   1.412   1_556  A
C1251      C1252   1.408       .  A
C1251      C1254   1.450       .  S
C1252      C1255   1.450       .  S
C1253      N1260   1.157       .  T
C1254      N1259   1.157       .  T
C1256      N1258   1.157       .  T
C1261      C1262   1.428       .  A
C1261      C1450   1.424   1_554  A
C1262      C1263   1.412       .  A
C1262      C1267   1.449       .  S
C1263      C1264   1.405       .  A
C1263      C1270   1.452       .  S
C1264      C1449   1.406   1_554  A
C1265      C1448   1.406       .  A
C1265      C1266   1.411       .  A
C1265      C1268   1.451       .  S
C1266      C1445   1.424       .  A
C1266      C1269   1.450       .  S
C1267      N1274   1.157       .  T
C1268      N1273   1.157       .  T
C1269      N1271   1.157       .  T
C1270      N1272   1.157       .  T
C1275      C1276   1.418       .  A
C1275      C1464   1.417   1_554  A
C1275      C1289   1.500   1_554  S
C1276      C1277   1.412       .  A
C1277      C1278   1.416       .  A
C1278      C1463   1.415   1_554  A
C1279      C1462   1.415       .  A
C1279      C1280   1.409       .  A
C1279      C1282   1.453       .  S
C1280      C1459   1.417       .  A
C1280      C1283   1.450       .  S
C1281      N1288   1.157       .  T
C1282      N1287   1.157       .  T
C1283      N1285   1.157       .  T
C1284      N1286   1.157       .  T
C1290      H1295   1.083       .  S
C1291      C1448   1.484       .  S
C1292      H1296   1.084       .  S
C1293      C1431   1.497       .  S
C1294      H1297   1.083       .  S
C1298      C1303   1.413       .  A
C1298      C1445   1.514       .  S
C1299      C1300   1.404       .  A
C1299      H1304   1.082       .  S
C1300      C1420   1.486       .  S
C1301      C1302   1.394       .  A
C1301      H1305   1.084       .  S
C1302      C1303   1.404       .  A
C1302      C1403   1.484       .  S
C1303      H1306   1.081       .  S
C1307      C1312   1.407       .  A
C1307      C1462   1.498       .  S
C1308      C1309   1.404       .  A
C1308      H1313   1.082       .  S
C1309      C1392   1.497       .  S
C1310      C1311   1.397       .  A
C1310      H1314   1.084       .  S
C1311      C1312   1.401       .  A
C1311      C1378   1.485       .  S
C1312      H1315   1.084       .  S
O1316     Cr1334   1.972       .  S
O1316      C1324   1.259       .  A
O1317     Cr1334   2.008       .  S
O1317      C1318   1.266       .  A
C1318      C1417   1.508       .  S
C1318      O1319   1.257       .  A
O1319     Cr1335   1.968       .  S
O1320     Cr1335   2.013       .  S
O1320      C1321   1.269       .  A
C1321      C1389   1.489       .  S
C1321      O1322   1.262       .  A
O1322     Cr1336   1.966       .  S
O1323     Cr1336   2.019       .  S
O1323      C1324   1.266       .  A
C1324      C1347   1.498       .  S
O1325     Cr1334   2.012       .  S
O1325      C1333   1.267       .  A
O1326     Cr1334   1.973       .  S
O1326      C1327   1.258       .  A
C1327      C1406   1.511       .  S
C1327      O1328   1.266       .  A
O1328     Cr1335   2.007       .  S
O1329     Cr1335   1.980       .  S
O1329      C1330   1.259       .  A
C1330      C1375   1.496       .  S
C1330      O1331   1.264       .  A
O1331     Cr1336   2.007       .  S
O1332     Cr1336   1.975       .  S
O1332      C1333   1.261       .  A
C1333      C1361   1.476       .  S
Cr1334     O1337   1.762       .  S
Cr1335     O1337   1.765       .  S
Cr1336     O1337   1.770       .  S
C1338      C1339   1.414       .  A
C1338      C1434   1.500       .  S
C1339      C1340   1.411       .  A
C1339      H1344   1.083       .  S
C1340      C1341   1.407       .  A
C1340      C1364   1.508       .  S
C1341      H1345   1.083       .  S
C1342      C1343   1.400       .  A
C1342      C1350   1.486       .  S
C1343      H1346   1.083       .  S
C1347      C1348   1.422       .  A
C1347      C1352   1.418       .  A
C1348      C1349   1.416       .  A
C1348      C1353   1.450       .  S
C1349      C1350   1.409       .  A
C1349      C1356   1.450       .  S
C1350      C1351   1.411       .  A
C1351      C1352   1.406       .  A
C1351      C1354   1.453       .  S
C1352      C1355   1.453       .  S
C1353      N1360   1.157       .  T
C1354      N1359   1.157       .  T
C1355      N1357   1.157       .  T
C1356      N1358   1.157       .  T
C1361      C1362   1.406       .  A
C1361      C1366   1.406       .  A
C1362      C1363   1.414       .  A
C1362      C1367   1.453       .  S
C1363      C1364   1.423       .  A
C1363      C1370   1.446       .  S
C1364      C1365   1.423       .  A
C1365      C1366   1.409       .  A
C1365      C1368   1.453       .  S
C1366      C1369   1.452       .  S
C1367      N1374   1.158       .  T
C1369      N1371   1.157       .  T
C1370      N1372   1.156       .  T
C1375      C1376   1.420       .  A
C1375      C1380   1.420       .  A
C1376      C1377   1.410       .  A
C1376      C1381   1.452       .  S
C1377      C1378   1.411       .  A
C1377      C1384   1.453       .  S
C1378      C1379   1.409       .  A
C1379      C1380   1.412       .  A
C1379      C1382   1.451       .  S
C1380      C1383   1.451       .  S
C1381      N1388   1.157       .  T
C1382      N1387   1.157       .  T
C1383      N1385   1.157       .  T
C1384      N1386   1.157       .  T
C1389      C1390   1.414       .  A
C1389      C1394   1.416       .  A
C1390      C1391   1.404       .  A
C1390      C1395   1.452       .  S
C1391      C1392   1.418       .  A
C1391      C1398   1.454       .  S
C1392      C1393   1.416       .  A
C1393      C1394   1.415       .  A
C1393      C1396   1.450       .  S
C1394      C1397   1.452       .  S
C1395      N1402   1.157       .  T
C1396      N1401   1.157       .  T
C1397      N1399   1.158       .  T
C1403      C1404   1.406       .  A
C1403      C1408   1.408       .  A
C1404      C1405   1.414       .  A
C1404      C1409   1.452       .  S
C1405      C1406   1.429       .  A
C1405      C1412   1.452       .  S
C1406      C1407   1.426       .  A
C1407      C1408   1.409       .  A
C1407      C1410   1.452       .  S
C1408      C1411   1.453       .  S
C1409      N1416   1.157       .  T
C1410      N1415   1.158       .  T
C1411      N1413   1.157       .  T
C1412      N1414   1.158       .  T
C1417      C1418   1.425       .  A
C1417      C1422   1.427       .  A
C1418      C1419   1.412       .  A
C1418      C1423   1.452       .  S
C1419      C1420   1.408       .  A
C1419      C1426   1.451       .  S
C1420      C1421   1.407       .  A
C1421      C1422   1.412       .  A
C1421      C1424   1.453       .  S
C1422      C1425   1.452       .  S
C1423      N1430   1.158       .  T
C1424      N1429   1.157       .  T
C1425      N1427   1.158       .  T
C1426      N1428   1.157       .  T
C1431      C1436   1.415       .  A
C1432      C1433   1.414       .  A
C1432      C1437   1.452       .  S
C1433      C1440   1.449       .  S
C1434      C1435   1.412       .  A
C1435      C1436   1.408       .  A
C1435      C1438   1.450       .  S
C1436      C1439   1.450       .  S
C1437      N1444   1.157       .  T
C1438      N1443   1.157       .  T
C1440      N1442   1.157       .  T
C1445      C1446   1.428       .  A
C1446      C1447   1.412       .  A
C1446      C1451   1.449       .  S
C1447      C1448   1.405       .  A
C1447      C1454   1.452       .  S
C1449      C1450   1.411       .  A
C1449      C1452   1.451       .  S
C1450      C1453   1.450       .  S
C1451      N1458   1.157       .  T
C1452      N1457   1.157       .  T
C1453      N1455   1.157       .  T
C1454      N1456   1.157       .  T
C1459      C1460   1.418       .  A
C1460      C1461   1.412       .  A
C1461      C1462   1.416       .  A
C1463      C1464   1.409       .  A
C1463      C1466   1.453       .  S
C1464      C1467   1.450       .  S
C1465      N1472   1.157       .  T
C1466      N1471   1.157       .  T
C1467      N1469   1.157       .  T
C1468      N1470   1.157       .  T
