geometry optimzed in LAMMPS
_audit_creation_date              2020-12-01 
_audit_creation_method            'lammps2cif' 
_symmetry_space_group_name_H-M    'P1' 
_symmetry_Int_Tables_number       1 
_symmetry_cell_setting            triclinic 
loop_ 
_symmetry_equiv_pos_as_xyz 
  x,y,z 
_cell_length_a                    58.17813338 
_cell_length_b                    58.17760765483377 
_cell_length_c                    58.02686897315194 
_cell_angle_alpha                 89.54210096362311 
_cell_angle_beta                  90.23662867867344 
_cell_angle_gamma                 90.40177741576706 
loop_ 
_atom_site_label 
_atom_site_type_symbol 
_atom_site_fract_x 
_atom_site_fract_y 
_atom_site_fract_z 
_atom_site_charge 
Zn1        Zn  0.99450867  0.62385342  0.84224783     1.49700
Zn2        Zn  0.97304765  0.66231514  0.80930316     1.49400
Zn3        Zn  0.02510457  0.66370820  0.81720407     1.49100
Zn4        Zn  0.00328443  0.61959488  0.79018101     1.49500
O5          O  0.99920381  0.64210409  0.81459669    -1.84000
O6          O  0.96480135  0.63325589  0.85706753    -0.74600
O7          O  0.98134352  0.69364937  0.79509725    -0.74400
O8          O  0.03607324  0.66488753  0.85071487    -0.73900
O9          O  0.95330256  0.66447861  0.83786922    -0.74600
O10         O  0.01870463  0.63346108  0.86467423    -0.74200
O11         O  0.01878916  0.69531112  0.80159593    -0.74800
O12         O  0.03323325  0.62669290  0.77501226    -0.74200
O13         O  0.95381475  0.64751302  0.78582998    -0.75000
O14         O  0.05106282  0.65092170  0.79904433    -0.74300
O15         O  0.97692269  0.62294659  0.76788716    -0.74800
O16         O  0.00431781  0.58484614  0.80101658    -0.74700
O17         O  0.99598012  0.58830525  0.83792113    -0.74500
C18         C  0.95129130  0.65032153  0.85467431     0.77300
C19         C  0.00058806  0.70401035  0.79278458     0.77800
C20         C  0.03293421  0.65007958  0.86685432     0.76700
C21         C  0.05106230  0.63758554  0.78179397     0.77100
C22         C  0.95775293  0.63322228  0.76993647     0.78200
C23         C  0.00053301  0.57548974  0.82070320     0.77300
Zn24       Zn  0.98224626  0.39089777  0.83366349     1.49700
Zn25       Zn  0.00574060  0.34000414  0.83427809     1.49400
Zn26       Zn  0.98898105  0.36121439  0.78754071     1.49100
Zn27       Zn  0.02904236  0.38633368  0.81427528     1.49500
O28         O  0.00122366  0.36911484  0.81746131    -1.84000
O29         O  0.97631118  0.37797584  0.86511278    -0.74600
O30         O  0.00191923  0.31064511  0.81256404    -0.74400
O31         O  0.95853535  0.37636042  0.78318378    -0.73900
O32         O  0.98223014  0.34019863  0.86074522    -0.74600
O33         O  0.95197090  0.39162918  0.81760502    -0.74200
O34         O  0.98400941  0.32740049  0.78320093    -0.74800
O35         O  0.04276920  0.37605575  0.78518564    -0.74200
O36         O  0.03753152  0.34162512  0.85001852    -0.75000
O37         O  0.01224460  0.36876974  0.76300803    -0.74300
O38         O  0.05046740  0.37638513  0.83956402    -0.74800
O39         O  0.02455546  0.42212704  0.81269878    -0.74700
O40         O  0.99294670  0.42538974  0.83327275    -0.74500
C41         C  0.97421148  0.35718567  0.87207337     0.77300
C42         C  0.99152227  0.30933425  0.79301680     0.77800
C43         C  0.94546781  0.38670993  0.79725712     0.76700
C44         C  0.03385326  0.37142618  0.76571773     0.77100
C45         C  0.05246580  0.35786325  0.85136590     0.78200
C46         C  0.00939834  0.43486450  0.82206237     0.77300
Zn47       Zn  0.15053501  0.53046681  0.68662667     1.49700
Zn48       Zn  0.10616035  0.50640880  0.70682442     1.49400
Zn49       Zn  0.11212832  0.50780105  0.65458733     1.49100
Zn50       Zn  0.14756239  0.47791351  0.68409283     1.49500
O51         O  0.12903856  0.50569872  0.68298608    -1.84000
O52         O  0.13697386  0.55249358  0.70858942    -0.74600
O53         O  0.07338204  0.51392268  0.69567232    -0.74400
O54         O  0.12448028  0.53482161  0.63710599    -0.73900
O55         O  0.11531584  0.52959629  0.73082205    -0.74600
O56         O  0.15549444  0.54690748  0.65629107    -0.74200
O57         O  0.07676361  0.50984170  0.65802602    -0.74800
O58         O  0.15203905  0.46611301  0.65145694    -0.74200
O59         O  0.10178192  0.47435787  0.71756513    -0.75000
O60         O  0.12017551  0.48055327  0.63567373    -0.74300
O61         O  0.12698265  0.45385429  0.69738386    -0.74800
O62         O  0.17757963  0.48193833  0.70356837    -0.74700
O63         O  0.18007641  0.51995958  0.70206481    -0.74500
C64         C  0.12504701  0.54890340  0.72660637     0.77300
C65         C  0.06414433  0.51277882  0.67573098     0.77800
C66         C  0.14227349  0.54766115  0.63870308     0.76700
C67         C  0.13710440  0.46676116  0.63519620     0.77100
C68         C  0.10890171  0.45543272  0.70945334     0.78200
C69         C  0.18799857  0.50064683  0.70888187     0.77300
Zn70       Zn  0.84138818  0.47958498  0.68148850     1.49700
Zn71       Zn  0.87895822  0.50677666  0.71060095     1.49400
Zn72       Zn  0.87910126  0.51239120  0.65693373     1.49100
Zn73       Zn  0.83781521  0.53146655  0.68618494     1.49500
O74         O  0.85981349  0.50723644  0.68361432    -1.84000
O75         O  0.85607446  0.45571061  0.70132724    -0.74600
O76         O  0.91319572  0.50856674  0.70231164    -0.74400
O77         O  0.87379030  0.48588543  0.63581234    -0.73900
O78         O  0.87373011  0.47719677  0.72781170    -0.74600
O79         O  0.84230453  0.46786847  0.64868103    -0.74200
O80         O  0.91424384  0.51496453  0.66462827    -0.74800
O81         O  0.83239981  0.54601107  0.65549446    -0.74200
O82         O  0.87302441  0.53481520  0.72958040    -0.75000
O83         O  0.86628991  0.53954025  0.63888121    -0.74300
O84         O  0.85208233  0.55564657  0.70495222    -0.74800
O85         O  0.80848129  0.52098841  0.70193225    -0.74700
O86         O  0.80921514  0.48350447  0.69556265    -0.74500
C87         C  0.86677296  0.45776802  0.72036616     0.77300
C88         C  0.92470836  0.51230467  0.68393298     0.77800
C89         C  0.85792100  0.47083313  0.63346292     0.76700
C90         C  0.84667420  0.54935651  0.63919848     0.77100
C91         C  0.86499225  0.55393849  0.72251249     0.78200
C92         C  0.79949207  0.50105863  0.70422753     0.77300
Zn93       Zn  0.66250156  0.01996708  0.81512364     1.49700
Zn94       Zn  0.62067157  0.99360679  0.84301607     1.49400
Zn95       Zn  0.61290932  0.00691838  0.79261997     1.49100
Zn96       Zn  0.64981250  0.96976880  0.80513823     1.49500
O97         O  0.63655647  0.99822989  0.81427349    -1.84000
O98         O  0.66749461  0.02922400  0.84885883    -0.74600
O99         O  0.58483279  0.99578559  0.84157259    -0.74400
O100        O  0.61982718  0.03856096  0.78214199    -0.73900
O101        O  0.63459638  0.01640706  0.86450101    -0.74600
O102        O  0.65265239  0.04906792  0.79937888    -0.74200
O103        O  0.57992623  0.00573368  0.80511511    -0.74800
O104        O  0.62550578  0.95484844  0.78678083    -0.74200
O105        O  0.62912091  0.96275389  0.85580191    -0.75000
O106        O  0.61195904  0.98469783  0.76700564    -0.74300
O107        O  0.65608465  0.94914361  0.83258662    -0.74800
O108        O  0.67773219  0.97466258  0.78528911    -0.74700
O109        O  0.69070780  0.00895877  0.79574888    -0.74500
C110        C  0.65324423  0.02808665  0.86566351     0.77300
C111        C  0.57141359  0.00056385  0.82470226     0.77800
C112        C  0.63533416  0.05340314  0.78671277     0.76700
C113        C  0.61195829  0.96333101  0.77176286     0.77100
C114        C  0.64418331  0.94776784  0.85094644     0.78200
C115        C  0.69253313  0.99083389  0.78348001     0.77300
Zn116      Zn  0.38575238  0.99890820  0.78861509     1.49700
Zn117      Zn  0.34451888  0.97076255  0.81110654     1.49400
Zn118      Zn  0.38585043  0.99214269  0.84217306     1.49100
Zn119      Zn  0.34696112  0.02244495  0.81882593     1.49500
O120        O  0.36624203  0.99577425  0.81523586    -1.84000
O121        O  0.37949168  0.97275096  0.76647775    -0.74600
O122        O  0.34310499  0.95206667  0.84032377    -0.74400
O123        O  0.42123603  0.99252189  0.83525972    -0.73900
O124        O  0.35683661  0.94987716  0.78754165    -0.74600
O125        O  0.42003744  0.99762708  0.79744254    -0.74200
O126        O  0.37546145  0.96293936  0.85827482    -0.74800
O127        O  0.34508375  0.03212825  0.85211662    -0.74200
O128        O  0.31329005  0.98113409  0.79800721    -0.75000
O129        O  0.37876493  0.01810831  0.86379452    -0.74300
O130        O  0.31591175  0.01880212  0.80257756    -0.74800
O131        O  0.36299926  0.04832690  0.80325078    -0.74700
O132        O  0.38119737  0.03039680  0.77483300    -0.74500
C133        C  0.36943107  0.95346314  0.77004398     0.77300
C134        C  0.35780925  0.94980290  0.85657803     0.77800
C135        C  0.43167850  0.99529357  0.81604287     0.76700
C136        C  0.36161998  0.03137023  0.86661928     0.77100
C137        C  0.30517462  0.00125330  0.79483155     0.78200
C138        C  0.37484630  0.04868411  0.78492971     0.77300
Zn139      Zn  0.50541695  0.10900799  0.70617136     1.49700
Zn140      Zn  0.53411576  0.15235523  0.68655795     1.49400
Zn141      Zn  0.50966930  0.11561844  0.65356043     1.49100
Zn142      Zn  0.48176590  0.15450967  0.68180460     1.49500
O143        O  0.50749849  0.13257768  0.68213088    -1.84000
O144        O  0.53032607  0.11523833  0.72948360    -0.74600
O145        O  0.55192872  0.15568922  0.65709021    -0.74400
O146        O  0.50898609  0.07990549  0.65706421    -0.73900
O147        O  0.55441152  0.13795526  0.70974651    -0.74600
O148        O  0.50867900  0.07480662  0.69487052    -0.74200
O149        O  0.53807451  0.12629915  0.63678221    -0.74800
O150        O  0.46842186  0.15687445  0.64893342    -0.74200
O151        O  0.52671237  0.18317683  0.70118205    -0.75000
O152        O  0.48353559  0.12547333  0.63335511    -0.74300
O153        O  0.48889187  0.18560397  0.69904030    -0.74800
O154        O  0.45674320  0.13971062  0.69980331    -0.74700
O155        O  0.47405535  0.11192857  0.72019413    -0.74500
C156        C  0.54968842  0.12540405  0.72712499     0.77300
C157        C  0.55218580  0.14301309  0.63926612     0.77800
C158        C  0.50899643  0.06636200  0.67456493     0.76700
C159        C  0.46958052  0.14227732  0.63253840     0.77100
C160        C  0.50822178  0.19370165  0.70601933     0.78200
C161        C  0.45636788  0.12368608  0.71479413     0.77300
Zn162      Zn  0.50207904  0.83281264  0.66074882     1.49700
Zn163      Zn  0.52864865  0.87608689  0.68039895     1.49400
Zn164      Zn  0.48297844  0.88412742  0.65907981     1.49100
Zn165      Zn  0.48573151  0.85491182  0.70607473     1.49500
O166        O  0.49955000  0.86170919  0.67666910    -1.84000
O167        O  0.53154524  0.83348207  0.64247714    -0.74600
O168        O  0.52669930  0.91206916  0.68105738    -0.74400
O169        O  0.47774070  0.87083004  0.62799325    -0.73900
O170        O  0.54943848  0.86507664  0.65480789    -0.74600
O171        O  0.47656696  0.83315367  0.63643903    -0.74200
O172        O  0.49588982  0.91764056  0.65944270    -0.74800
O173        O  0.45347446  0.86749968  0.70649702    -0.74200
O174        O  0.53886197  0.86502655  0.71114228    -0.75000
O175        O  0.45223538  0.88685747  0.67325476    -0.74300
O176        O  0.50567211  0.87085361  0.72920987    -0.74800
O177        O  0.48659139  0.82097871  0.71464544    -0.74700
O178        O  0.50198970  0.80483049  0.68383454    -0.74500
C179        C  0.54817586  0.84784846  0.64129188     0.77300
C180        C  0.51269835  0.92587269  0.67106130     0.77800
C181        C  0.47156519  0.85026874  0.62332884     0.76700
C182        C  0.44294438  0.88033875  0.69201503     0.77100
C183        C  0.52757606  0.87099368  0.72881957     0.78200
C184        C  0.49481904  0.80342278  0.70467792     0.77300
Zn185      Zn  0.34332097  0.81227496  0.02746820     1.49700
Zn186      Zn  0.38504129  0.78657547  0.00302746     1.49400
Zn187      Zn  0.34527697  0.81206519  0.97545411     1.49100
Zn188      Zn  0.38445535  0.83892005  0.00174144     1.49500
O189        O  0.36476873  0.81238273  0.00200840    -1.84000
O190        O  0.35986137  0.79698198  0.05329859    -0.74600
O191        O  0.37612089  0.76499649  0.97748898    -0.74400
O192        O  0.31458322  0.79627115  0.98205809    -0.73900
O193        O  0.38406037  0.77357209  0.03515071    -0.74600
O194        O  0.31327113  0.79354972  0.02017366    -0.74200
O195        O  0.35984404  0.79092233  0.95406250    -0.74800
O196        O  0.37752269  0.85729665  0.97364722    -0.74200
O197        O  0.41908740  0.79566244  0.99800299    -0.75000
O198        O  0.34486857  0.84320320  0.95916061    -0.74300
O199        O  0.41946602  0.83325012  0.00324247    -0.74800
O200        O  0.37424509  0.85860147  0.02704631    -0.74700
O201        O  0.33982837  0.84526869  0.03811495    -0.74500
C202        C  0.37536924  0.78172091  0.05348368     0.77300
C203        C  0.36961765  0.77175091  0.95753265     0.77800
C204        C  0.30511175  0.78837171  0.00033475     0.76700
C205        C  0.36083717  0.85842087  0.95943072     0.77100
C206        C  0.43025109  0.81456183  0.99989819     0.78200
C207        C  0.35568596  0.86066177  0.03838882     0.77300
Zn208      Zn  0.61654460  0.83152941  0.02090303     1.49700
Zn209      Zn  0.61207324  0.81349600  0.97399928     1.49400
Zn210      Zn  0.66239671  0.83025318  0.98902412     1.49100
Zn211      Zn  0.64203719  0.78385999  0.00827056     1.49500
O212        O  0.63388862  0.81466819  0.99840663    -1.84000
O213        O  0.58217262  0.83808855  0.01371015    -0.74600
O214        O  0.61927566  0.83903257  0.95250048    -0.74400
O215        O  0.66927855  0.85482589  0.01334412    -0.73900
O216        O  0.57817803  0.81551980  0.98360998    -0.74600
O217        O  0.63469347  0.85897831  0.02957752    -0.74200
O218        O  0.65621538  0.84756725  0.95883202    -0.74800
O219        O  0.67627947  0.77801244  0.00787763    -0.74200
O220        O  0.61628175  0.78431575  0.95816823    -0.75000
O221        O  0.68986143  0.80709859  0.98681610    -0.74300
O222        O  0.62862641  0.76075960  0.98598471    -0.74800
O223        O  0.63053234  0.77868111  0.04023305    -0.74700
O224        O  0.61535929  0.81245773  0.04918572    -0.74500
C225        C  0.56918250  0.82768913  0.99930851     0.77300
C226        C  0.63739426  0.85048522  0.94775790     0.77800
C227        C  0.65574897  0.86474519  0.02739680     0.76700
C228        C  0.69267978  0.78757369  0.99685173     0.77100
C229        C  0.62104533  0.76431316  0.96563263     0.78200
C230        C  0.62061200  0.79190925  0.05442804     0.77300
Zn231      Zn  0.47578773  0.67369999  0.15583153     1.49700
Zn232      Zn  0.52725330  0.67285640  0.15314591     1.49400
Zn233      Zn  0.49976273  0.64947977  0.11255917     1.49100
Zn234      Zn  0.49960212  0.70232663  0.11586297     1.49500
O235        O  0.50036128  0.67471865  0.13381317    -1.84000
O236        O  0.48488686  0.68796941  0.18686582    -0.74600
O237        O  0.54017463  0.64111057  0.15239766    -0.74400
O238        O  0.47500628  0.62817392  0.12315179    -0.73900
O239        O  0.52280119  0.68638917  0.18524921    -0.74600
O240        O  0.46303896  0.64139452  0.15709617    -0.74200
O241        O  0.52866017  0.63165943  0.11699604    -0.74800
O242        O  0.49641438  0.69623907  0.08090132    -0.74200
O243        O  0.55091133  0.69250907  0.13897374    -0.75000
O244        O  0.49568778  0.65835743  0.07802428    -0.74300
O245        O  0.52958383  0.71887638  0.12084215    -0.74800
O246        O  0.47177027  0.72032701  0.12508011    -0.74700
O247        O  0.45116065  0.69368063  0.14378466    -0.74500
C248        C  0.50456500  0.69258182  0.19555234     0.77300
C249        C  0.54144724  0.62842901  0.13461536     0.77800
C250        C  0.46309274  0.62603639  0.14145757     0.76700
C251        C  0.49498639  0.67822124  0.06847690     0.77100
C252        C  0.54891108  0.71137805  0.12808239     0.78200
C253        C  0.45275834  0.71286611  0.13326723     0.77300
Zn254      Zn  0.49436859  0.65199679  0.88066421     1.49700
Zn255      Zn  0.46730895  0.68051221  0.84308441     1.49400
Zn256      Zn  0.49386799  0.70368792  0.88503922     1.49100
Zn257      Zn  0.52012418  0.68168150  0.84128745     1.49500
O258        O  0.49414685  0.67953555  0.86255483    -1.84000
O259        O  0.46782474  0.63309124  0.87124881    -0.74600
O260        O  0.44517821  0.70074264  0.85851741    -0.74400
O261        O  0.48921793  0.69317916  0.91907229    -0.73900
O262        O  0.45205117  0.64910153  0.84012183    -0.74600
O263        O  0.49373842  0.65573350  0.91587179    -0.74200
O264        O  0.46860714  0.72539000  0.87658682    -0.74800
O265        O  0.54450662  0.69955822  0.85749856    -0.74200
O266        O  0.47394703  0.69709071  0.81294026    -0.75000
O267        O  0.52515106  0.71735243  0.88532002    -0.74300
O268        O  0.51193875  0.69927643  0.81072660    -0.74800
O269        O  0.53430811  0.64971964  0.83856318    -0.74700
O270        O  0.52124810  0.63396673  0.87131262    -0.74500
C271        C  0.45342727  0.63261823  0.85470915     0.77300
C272        C  0.44875849  0.71935312  0.86932644     0.77800
C273        C  0.49093141  0.67334655  0.92849262     0.76700
C274        C  0.54374581  0.71251765  0.87498785     0.77100
C275        C  0.49202800  0.70453066  0.80287749     0.78200
C276        C  0.53435459  0.63365084  0.85381269     0.77300
Zn277      Zn  0.81500686  0.65680800  0.97576914     1.49700
Zn278      Zn  0.81938861  0.65441802  0.02757630     1.49400
Zn279      Zn  0.79105752  0.61508868  0.00322833     1.49100
Zn280      Zn  0.84393822  0.61539103  0.99935536     1.49500
O281        O  0.81743175  0.63501710  0.00109200    -1.84000
O282        O  0.80020505  0.68774015  0.98507344    -0.74600
O283        O  0.80576562  0.63701234  0.05350353    -0.74400
O284        O  0.76821252  0.62500259  0.97919083    -0.73900
O285        O  0.80095025  0.68399678  0.02308015    -0.74600
O286        O  0.79215583  0.64302505  0.95488421    -0.74200
O287        O  0.77934648  0.61542379  0.03575149    -0.74800
O288        O  0.83675887  0.57976532  0.99803229    -0.74200
O289        O  0.85246203  0.65838453  0.03690682    -0.75000
O290        O  0.79877654  0.58098357  0.99724723    -0.74300
O291        O  0.86512876  0.62410921  0.02560156    -0.74800
O292        O  0.86127068  0.62561722  0.97139236    -0.74700
O293        O  0.84555831  0.65817347  0.95827161    -0.74500
C294        C  0.79436413  0.69483081  0.00500268     0.77300
C295        C  0.78935541  0.62257259  0.05394643     0.77800
C296        C  0.77349571  0.63230134  0.95909318     0.76700
C297        C  0.81732244  0.56932927  0.99657918     0.77100
C298        C  0.86764672  0.64261858  0.03714132     0.78200
C299        C  0.86143627  0.64302812  0.95785838     0.77300
Zn300      Zn  0.81642886  0.34184161  0.01843457     1.49700
Zn301      Zn  0.79472786  0.38515043  0.98962337     1.49400
Zn302      Zn  0.84746450  0.38071564  0.99212063     1.49100
Zn303      Zn  0.81892640  0.34293507  0.96598210     1.49500
O304        O  0.81938601  0.36307555  0.99200629    -1.84000
O305        O  0.79419300  0.35662930  0.03943973    -0.74600
O306        O  0.80532177  0.41951177  0.99124675    -0.74400
O307        O  0.86282828  0.37268540  0.02161638    -0.73900
O308        O  0.77354811  0.37936958  0.01610292    -0.74600
O309        O  0.84699827  0.34103919  0.03690206    -0.74200
O310        O  0.84318023  0.41643609  0.99094838    -0.74800
O311        O  0.85128239  0.33639476  0.95555941    -0.74200
O312        O  0.77903137  0.38115138  0.95899963    -0.75000
O313        O  0.86854370  0.36863886  0.96726058    -0.74300
O314        O  0.80401643  0.35941094  0.94005971    -0.74800
O315        O  0.79853853  0.31484413  0.97221315    -0.74700
O316        O  0.79956132  0.31071729  0.01018086    -0.74500
C317        C  0.77714656  0.36969562  0.03557034     0.77300
C318        C  0.82520267  0.42904540  0.99134252     0.77800
C319        C  0.86239390  0.35694307  0.03701893     0.76700
C320        C  0.86862651  0.34999688  0.95571268     0.77100
C321        C  0.78685352  0.37274534  0.94040314     0.78200
C322        C  0.79200366  0.30428727  0.99045377     0.77300
Zn323      Zn  0.68648350  0.51781966  0.15949298     1.49700
Zn324      Zn  0.65682087  0.49681749  0.11798235     1.49400
Zn325      Zn  0.70930322  0.49569840  0.11371969     1.49100
Zn326      Zn  0.68435521  0.46579058  0.15384385     1.49500
O327        O  0.68451652  0.49399751  0.13596186    -1.84000
O328        O  0.65597261  0.53359165  0.16272464    -0.74600
O329        O  0.66087279  0.49804085  0.08264354    -0.74400
O330        O  0.72772223  0.52425105  0.12052115    -0.73900
O331        O  0.64136862  0.52509730  0.12822332    -0.74600
O332        O  0.70740556  0.54200149  0.14760912    -0.74200
O333        O  0.69863971  0.49776730  0.07909236    -0.74800
O334        O  0.70383815  0.44375897  0.13706561    -0.74200
O335        O  0.63537036  0.47125178  0.12663788    -0.75000
O336        O  0.72768217  0.46676249  0.11712890    -0.74300
O337        O  0.65202211  0.45239658  0.15568799    -0.74800
O338        O  0.70004595  0.46950067  0.18523592    -0.74700
O339        O  0.70090432  0.50716216  0.19017342    -0.74500
C340        C  0.64115703  0.53669962  0.14674327     0.77300
C341        C  0.67865547  0.49844569  0.06980108     0.77800
C342        C  0.72347867  0.54176876  0.13288465     0.76700
C343        C  0.72150489  0.44698801  0.12459577     0.77100
C344        C  0.63485423  0.45579030  0.14231625     0.78200
C345        C  0.70607183  0.48696495  0.19706337     0.77300
Zn346      Zn  0.70899819  0.49934639  0.88247339     1.49700
Zn347      Zn  0.67983985  0.47898222  0.84069131     1.49400
Zn348      Zn  0.65559565  0.50585734  0.88326063     1.49100
Zn349      Zn  0.68524999  0.53000263  0.84497905     1.49500
O350        O  0.68222751  0.50305477  0.86345166    -1.84000
O351        O  0.72284406  0.46860072  0.87572442    -0.74600
O352        O  0.64652848  0.46940919  0.83867593    -0.74400
O353        O  0.66323120  0.50412748  0.91893337    -0.73900
O354        O  0.69623021  0.45191065  0.85343787    -0.74600
O355        O  0.70091828  0.49948223  0.91695130    -0.74200
O356        O  0.63388633  0.48096195  0.87309289    -0.74800
O357        O  0.65573918  0.54635328  0.84202976    -0.74200
O358        O  0.69586877  0.48710680  0.80962469    -0.75000
O359        O  0.63854836  0.53512353  0.87452761    -0.74300
O360        O  0.70002485  0.52455650  0.81437080    -0.74800
O361        O  0.70556087  0.55064847  0.86164520    -0.74700
O362        O  0.73047422  0.52630727  0.87773327    -0.74500
C363        C  0.71402589  0.45091948  0.86614855     0.77300
C364        C  0.63122521  0.46965921  0.85444459     0.77800
C365        C  0.68273698  0.50160745  0.92902768     0.76700
C366        C  0.63961744  0.54804930  0.85662993     0.77100
C367        C  0.70349312  0.50658379  0.80257896     0.78200
C368        C  0.72394959  0.54660739  0.87265688     0.77300
Zn369      Zn  0.02463123  0.83329975  0.61609819     1.49700
Zn370      Zn  0.99216859  0.79549165  0.63991484     1.49400
Zn371      Zn  0.99914894  0.84338676  0.66368212     1.49100
Zn372      Zn  0.97425209  0.83971444  0.61265132     1.49500
O373        O  0.99725264  0.82770449  0.63362586    -1.84000
O374        O  0.04390317  0.80600590  0.61958014    -0.74600
O375        O  0.99008999  0.78774633  0.67388488    -0.74400
O376        O  0.03000098  0.86027548  0.66612154    -0.73900
O377        O  0.01894319  0.77786157  0.62762019    -0.74600
O378        O  0.04141033  0.85990135  0.62944980    -0.74200
O379        O  0.99494133  0.82089951  0.69200368    -0.74800
O380        O  0.96592799  0.87000348  0.62532360    -0.74200
O381        O  0.96195109  0.78608669  0.62595476    -0.75000
O382        O  0.97576014  0.86957896  0.66272159    -0.74300
O383        O  0.94691027  0.81909331  0.61362521    -0.74800
O384        O  0.98311341  0.84238039  0.57781637    -0.74700
O385        O  0.02046640  0.83760462  0.58099044    -0.74500
C386        C  0.03894646  0.78478969  0.62172440     0.77300
C387        C  0.99158346  0.79909471  0.69247916     0.77800
C388        C  0.04307049  0.86744742  0.64992577     0.76700
C389        C  0.96627065  0.87918060  0.64521365     0.77100
C390        C  0.94526395  0.79759816  0.61755175     0.78200
C391        C  0.00277859  0.84071664  0.56830939     0.77300
Zn392      Zn  0.02552473  0.84104795  0.38308080     1.49700
Zn393      Zn  0.00597908  0.79645410  0.35848876     1.49400
Zn394      Zn  0.97547012  0.83692163  0.37995042     1.49100
Zn395      Zn  0.00176241  0.84342263  0.33210218     1.49500
O396        O  0.00228419  0.82899866  0.36284660    -1.84000
O397        O  0.05247948  0.82096949  0.38104428    -0.74600
O398        O  0.97815169  0.78054939  0.37183233    -0.74400
O399        O  0.97975654  0.84155957  0.41506725    -0.73900
O400        O  0.03684108  0.78729162  0.37133111    -0.74600
O401        O  0.01744099  0.84296438  0.41808999    -0.74200
O402        O  0.95487756  0.81044236  0.37702626    -0.74800
O403        O  0.97247200  0.86191828  0.32862625    -0.74200
O404        O  0.00602873  0.78686174  0.32509753    -0.75000
O405        O  0.96038991  0.86401780  0.36498969    -0.74300
O406        O  0.00240927  0.81935068  0.30518869    -0.74800
O407        O  0.02693399  0.86849872  0.33182989    -0.74700
O408        O  0.03382219  0.87140222  0.36976539    -0.74500
C409        C  0.05402391  0.79946448  0.37781703     0.77300
C410        C  0.95837495  0.78892952  0.37605082     0.77800
C411        C  0.99773095  0.84296833  0.42768326     0.76700
C412        C  0.95955149  0.87051076  0.34396870     0.77100
C413        C  0.00391725  0.79736967  0.30592560     0.78200
C414        C  0.03502017  0.87937163  0.34924710     0.77300
Zn415      Zn  0.11485162  0.67003245  0.46657555     1.49700
Zn416      Zn  0.11009973  0.67332303  0.51616531     1.49400
Zn417      Zn  0.16140200  0.66465586  0.49677747     1.49100
Zn418      Zn  0.13882855  0.71309051  0.49192325     1.49500
O419        O  0.13196629  0.68074646  0.49278565    -1.84000
O420        O  0.07905011  0.66797575  0.46966526    -0.74600
O421        O  0.12022854  0.64437549  0.53039458    -0.74400
O422        O  0.16460412  0.64201058  0.47048614    -0.73900
O423        O  0.07564399  0.67134791  0.50717417    -0.74600
O424        O  0.12840012  0.64029096  0.45752045    -0.74200
O425        O  0.15829865  0.64355236  0.52513834    -0.74800
O426        O  0.17265694  0.72082478  0.49571438    -0.74200
O427        O  0.11224273  0.69745953  0.53913602    -0.75000
O428        O  0.19011167  0.68709576  0.49779817    -0.74300
O429        O  0.12305398  0.72827154  0.51869230    -0.74800
O430        O  0.13003485  0.72425522  0.46021924    -0.74700
O431        O  0.12096879  0.69203682  0.44149954    -0.74500
C432        C  0.06622435  0.66923354  0.48743575     0.77300
C433        C  0.13983389  0.63549162  0.53413910     0.77800
C434        C  0.14880050  0.63244827  0.45851319     0.76700
C435        C  0.19099691  0.70914267  0.49731736     0.77100
C436        C  0.11535889  0.71900538  0.53717334     0.78200
C437        C  0.12501160  0.71352708  0.44168954     0.77300
Zn438      Zn  0.87932826  0.66824429  0.52142558     1.49700
Zn439      Zn  0.85574548  0.71251942  0.49971042     1.49400
Zn440      Zn  0.88053995  0.67382204  0.47082086     1.49100
Zn441      Zn  0.83039420  0.66490671  0.49439372     1.49500
O442        O  0.86085628  0.68009385  0.49658886    -1.84000
O443        O  0.87752124  0.68973658  0.54757593    -0.74600
O444        O  0.87016699  0.72903994  0.47291101    -0.74400
O445        O  0.91572559  0.67027367  0.47732287    -0.73900
O446        O  0.86751891  0.72265094  0.53057928    -0.74600
O447        O  0.91421303  0.66558961  0.51495031    -0.74200
O448        O  0.87789322  0.69993401  0.44956095    -0.74800
O449        O  0.83069232  0.64439878  0.46566082    -0.74200
O450        O  0.82240964  0.72120307  0.49727598    -0.75000
O451        O  0.86742553  0.64687630  0.45487615    -0.74300
O452        O  0.80278410  0.68866406  0.49302741    -0.74800
O453        O  0.82804806  0.64198825  0.52136445    -0.74700
O454        O  0.86514302  0.63874542  0.53145721    -0.74500
C455        C  0.87442051  0.71132728  0.54819307     0.77300
C456        C  0.87590045  0.72130288  0.45326486     0.77800
C457        C  0.92609018  0.66747031  0.49655939     0.76700
C458        C  0.84747145  0.63784093  0.45316813     0.77100
C459        C  0.80342753  0.71069698  0.49417350     0.78200
C460        C  0.84433076  0.63179465  0.53217177     0.77300
Zn461      Zn  0.83380821  0.00598158  0.65713532     1.49700
Zn462      Zn  0.78811196  0.99082072  0.63298939     1.49400
Zn463      Zn  0.82298797  0.02581128  0.60666832     1.49100
Zn464      Zn  0.83561143  0.97620326  0.61012373     1.49500
O465        O  0.81988515  0.99961047  0.62703674    -1.84000
O466        O  0.81009108  0.00602322  0.68403394    -0.74600
O467        O  0.76726941  0.01518377  0.61983745    -0.74400
O468        O  0.84721232  0.04778157  0.61882998    -0.73900
O469        O  0.77994347  0.99021298  0.66673617    -0.74600
O470        O  0.85042551  0.03680106  0.65554885    -0.74200
O471        O  0.79344241  0.04131327  0.60913445    -0.74800
O472        O  0.83905168  0.98243554  0.57511522    -0.74200
O473        O  0.78210659  0.95907808  0.62088210    -0.75000
O474        O  0.82753352  0.01835729  0.57194832    -0.74300
O475        O  0.81714601  0.94750547  0.61108734    -0.74800
O476        O  0.86498397  0.96980009  0.62669416    -0.74700
O477        O  0.85875847  0.98218680  0.66256859    -0.74500
C478        C  0.78950131  0.99815955  0.68477233     0.77300
C479        C  0.77275384  0.03544498  0.61324325     0.77800
C480        C  0.85533297  0.05068397  0.63909698     0.76700
C481        C  0.83399934  0.99976167  0.56246393     0.77100
C482        C  0.79582227  0.94363471  0.61388323     0.78200
C483        C  0.87061101  0.97105333  0.64795461     0.77300
Zn484      Zn  0.82428549  0.03152099  0.37486677     1.49700
Zn485      Zn  0.83577244  0.00611038  0.32675772     1.49400
Zn486      Zn  0.82947162  0.98087629  0.37711905     1.49100
Zn487      Zn  0.78657070  0.00142119  0.34956992     1.49500
O488        O  0.81894969  0.00487640  0.35646379    -1.84000
O489        O  0.85145030  0.04768686  0.36249139    -0.74600
O490        O  0.85927582  0.97963588  0.32735951    -0.74400
O491        O  0.83200679  0.98865254  0.41214465    -0.73900
O492        O  0.85624239  0.03529032  0.32660892    -0.74600
O493        O  0.82774346  0.02617214  0.40991897    -0.74200
O494        O  0.85928619  0.97037631  0.36491362    -0.74800
O495        O  0.77522653  0.97173088  0.36282725    -0.74200
O496        O  0.81306622  0.00498034  0.29774171    -0.75000
O497        O  0.80751591  0.95490479  0.37463316    -0.74300
O498        O  0.77995417  0.99915615  0.31572479    -0.74800
O499        O  0.76913142  0.02928877  0.35982144    -0.74700
O500        O  0.79802947  0.05210914  0.37044601    -0.74500
C501        C  0.86164602  0.04877596  0.34314092     0.77300
C502        C  0.86813581  0.96943703  0.34489109     0.77800
C503        C  0.83055667  0.00806057  0.42213547     0.76700
C504        C  0.78610135  0.95418034  0.37019689     0.77100
C505        C  0.79122223  0.00142688  0.29712550     0.78200
C506        C  0.77688073  0.04888593  0.36589226     0.77300
Zn507      Zn  0.65422744  0.12178646  0.48916445     1.49700
Zn508      Zn  0.68373934  0.15876518  0.51785631     1.49400
Zn509      Zn  0.70635432  0.11648294  0.48991735     1.49100
Zn510      Zn  0.68405523  0.16140950  0.46591195     1.49500
O511        O  0.68229554  0.13920673  0.49082903    -1.84000
O512        O  0.63597715  0.12964892  0.51675861    -0.74600
O513        O  0.70136169  0.14124427  0.54083057    -0.74400
O514        O  0.69510919  0.08228334  0.48907957    -0.73900
O515        O  0.65189103  0.16103285  0.53215950    -0.74600
O516        O  0.65743652  0.08625698  0.48736729    -0.74200
O517        O  0.72386467  0.11874173  0.51956113    -0.74800
O518        O  0.70262171  0.14755988  0.44151003    -0.74200
O519        O  0.70219066  0.18926772  0.51264813    -0.75000
O520        O  0.72465530  0.12264151  0.46103675    -0.74300
O521        O  0.70149871  0.19054433  0.47456522    -0.74800
O522        O  0.65286148  0.16697403  0.45186661    -0.74700
O523        O  0.63615866  0.13405636  0.46269919    -0.74500
C524        C  0.63577712  0.14595228  0.53128713     0.77300
C525        C  0.71737417  0.12674053  0.53885790     0.77800
C526        C  0.67505113  0.07324023  0.48807734     0.76700
C527        C  0.71917457  0.13352044  0.44262285     0.77100
C528        C  0.70829694  0.19886626  0.49370277     0.78200
C529        C  0.63630583  0.15253903  0.45072511     0.77300
Zn530      Zn  0.66298948  0.83900578  0.49972081     1.49700
Zn531      Zn  0.71131221  0.85783850  0.48452246     1.49400
Zn532      Zn  0.66623488  0.88813883  0.47256807     1.49100
Zn533      Zn  0.68328208  0.88617594  0.52067049     1.49500
O534        O  0.68096625  0.86723982  0.49413908    -1.84000
O535        O  0.68429442  0.80929356  0.50071104    -0.74600
O536        O  0.71687764  0.86985239  0.45272868    -0.74400
O537        O  0.63526204  0.87546301  0.46531256    -0.73900
O538        O  0.71565694  0.82360759  0.48427191    -0.74600
O539        O  0.63780372  0.83804757  0.47442749    -0.74200
O540        O  0.68394925  0.88700759  0.44345306    -0.74800
O541        O  0.68461102  0.92130319  0.51403672    -0.74200
O542        O  0.73518946  0.86793149  0.50775696    -0.75000
O543        O  0.66573242  0.92302131  0.48103485    -0.74300
O544        O  0.71196105  0.87769588  0.53634339    -0.74800
O545        O  0.65759128  0.87778363  0.54176276    -0.74700
O546        O  0.64582178  0.84309023  0.53037823    -0.74500
C547        C  0.70473920  0.80661000  0.49287227     0.77300
C548        C  0.70406031  0.88039250  0.43829114     0.77800
C549        C  0.62753623  0.85491119  0.46450208     0.76700
C550        C  0.67588321  0.93323055  0.49766007     0.77100
C551        C  0.73178559  0.87263134  0.52888543     0.78200
C552        C  0.64494860  0.85996217  0.54439184     0.77300
Zn553      Zn  0.61356066  0.96304182  0.16462337     1.49700
Zn554      Zn  0.63593503  0.99292644  0.20496152     1.49400
Zn555      Zn  0.66194764  0.99194404  0.15745527     1.49100
Zn556      Zn  0.61143890  0.01304723  0.16125752     1.49500
O557        O  0.63155073  0.98976466  0.17240373    -1.84000
O558        O  0.61486562  0.94257223  0.19167300    -0.74600
O559        O  0.66926008  0.99153769  0.21388101    -0.74400
O560        O  0.66472048  0.96342765  0.13722717    -0.73900
O561        O  0.62153680  0.96590178  0.22124204    -0.74600
O562        O  0.62982140  0.94697350  0.13932146    -0.74200
O563        O  0.68979893  0.99337144  0.18179866    -0.74800
O564        O  0.62250163  0.02217167  0.13030552    -0.74200
O565        O  0.62390649  0.02369581  0.21466254    -0.75000
O566        O  0.66064451  0.01866534  0.13399198    -0.74300
O567        O  0.61529129  0.03988821  0.18087201    -0.74800
O568        O  0.57653828  0.00539930  0.16208702    -0.74700
O569        O  0.57833754  0.96777164  0.15893247    -0.74500
C570        C  0.61625861  0.94620623  0.21320517     0.77300
C571        C  0.68868966  0.99190927  0.20389934     0.77800
C572        C  0.65017662  0.94798295  0.13122596     0.76700
C573        C  0.64287646  0.02602397  0.12314316     0.77100
C574        C  0.61781972  0.04105543  0.20254909     0.78200
C575        C  0.56632343  0.98601988  0.16038539     0.77300
Zn576      Zn  0.33819863  0.01656159  0.18123294     1.49700
Zn577      Zn  0.38349215  0.99694873  0.20777228     1.49400
Zn578      Zn  0.34350126  0.96556098  0.18776870     1.49100
Zn579      Zn  0.37947678  0.98977229  0.15558254     1.49500
O580        O  0.36162009  0.99266501  0.18321930    -1.84000
O581        O  0.35101744  0.04331647  0.19778195    -0.74600
O582        O  0.38027796  0.97024471  0.22998017    -0.74400
O583        O  0.31423590  0.97146930  0.20507504    -0.73900
O584        O  0.37675949  0.02754650  0.22182690    -0.74600
O585        O  0.30787302  0.00841125  0.19901268    -0.74200
O586        O  0.36107088  0.94520835  0.20800073    -0.74800
O587        O  0.36840774  0.96218747  0.13847759    -0.74200
O588        O  0.41762229  0.99771330  0.19670180    -0.75000
O589        O  0.33796284  0.94943859  0.15796994    -0.74300
O590        O  0.41522666  0.98913842  0.15968255    -0.74800
O591        O  0.36984153  0.01582405  0.13544499    -0.74700
O592        O  0.33551742  0.02753344  0.14776366    -0.74500
C593        C  0.36528259  0.04469911  0.21433097     0.77300
C594        C  0.37326308  0.94990083  0.22556193     0.77800
C595        C  0.30219788  0.98928619  0.20852668     0.76700
C596        C  0.35087474  0.94904555  0.14031606     0.77100
C597        C  0.42745123  0.99363058  0.17747444     0.78200
C598        C  0.35161778  0.02767689  0.13275296     0.77300
Zn599      Zn  0.52109922  0.14405068  0.31319561     1.49700
Zn600      Zn  0.47095963  0.14713444  0.31666772     1.49400
Zn601      Zn  0.49241404  0.10232277  0.29090134     1.49100
Zn602      Zn  0.49705959  0.10589811  0.34272643     1.49500
O603        O  0.49489439  0.12425121  0.31543981    -1.84000
O604        O  0.51522393  0.17235540  0.29272170    -0.74600
O605        O  0.44486415  0.13267615  0.30064867    -0.74400
O606        O  0.52129524  0.10668381  0.27193744    -0.73900
O607        O  0.47795570  0.17741046  0.29785296    -0.74600
O608        O  0.54362167  0.12578149  0.29700619    -0.74200
O609        O  0.46169845  0.10889041  0.27563315    -0.74800
O610        O  0.49700356  0.07043937  0.33878466    -0.74200
O611        O  0.46103796  0.15016303  0.35007019    -0.75000
O612        O  0.49231472  0.06733551  0.30120344    -0.74300
O613        O  0.47177858  0.11550171  0.36294084    -0.74800
O614        O  0.52460011  0.11609769  0.36011682    -0.74700
O615        O  0.53445894  0.15000610  0.34482100    -0.74500
C616        C  0.49683944  0.18337055  0.28820051     0.77300
C617        C  0.44399191  0.11892829  0.28376748     0.77800
C618        C  0.54100523  0.11302615  0.27956161     0.76700
C619        C  0.49475958  0.05775663  0.32101032     0.77100
C620        C  0.46093837  0.13426236  0.36548101     0.78200
C621        C  0.53587685  0.13493338  0.36088878     0.77300
Zn622      Zn  0.49713603  0.87002373  0.34302835     1.49700
Zn623      Zn  0.49693092  0.87056602  0.28910430     1.49400
Zn624      Zn  0.52318436  0.82953951  0.31442607     1.49100
Zn625      Zn  0.47115905  0.83053264  0.31479049     1.49500
O626        O  0.49744207  0.85073764  0.31566434    -1.84000
O627        O  0.49697747  0.90616757  0.33568774    -0.74600
O628        O  0.52543379  0.86550892  0.27111996    -0.74400
O629        O  0.53724089  0.82748562  0.34626602    -0.73900
O630        O  0.49588402  0.90498171  0.29757720    -0.74600
O631        O  0.52460904  0.85982118  0.36247370    -0.74200
O632        O  0.54702789  0.84361905  0.29429450    -0.74800
O633        O  0.47745094  0.80041335  0.29867646    -0.74200
O634        O  0.46895675  0.86405732  0.27007656    -0.75000
O635        O  0.51537541  0.79844957  0.29863600    -0.74300
O636        O  0.44740546  0.84544078  0.29590712    -0.74800
O637        O  0.45704204  0.82742933  0.34592414    -0.74700
O638        O  0.46892336  0.86033139  0.36173665    -0.74500
C639        C  0.49607252  0.91670802  0.31613770     0.77300
C640        C  0.54451032  0.85633895  0.27659318     0.77800
C641        C  0.53757183  0.84207575  0.36265624     0.76700
C642        C  0.49580955  0.79027590  0.29267578     0.77100
C643        C  0.44958253  0.85690253  0.27738250     0.78200
C644        C  0.45592485  0.84245968  0.36174651     0.77300
Zn645      Zn  0.61688097  0.15996797  0.96708556     1.49700
Zn646      Zn  0.63919129  0.20520844  0.99025897     1.49400
Zn647      Zn  0.61495991  0.16255430  0.01743569     1.49100
Zn648      Zn  0.66577574  0.15974405  0.99513902     1.49500
O649        O  0.63459142  0.17232056  0.99240380    -1.84000
O650        O  0.61890308  0.18283468  0.94166362    -0.74600
O651        O  0.62351264  0.21903021  0.01758363    -0.74400
O652        O  0.57976345  0.15770107  0.01074766    -0.73900
O653        O  0.62764099  0.21562797  0.95940217    -0.74600
O654        O  0.58127819  0.15542763  0.97298231    -0.74200
O655        O  0.61598292  0.18788745  0.03920713    -0.74800
O656        O  0.66646581  0.13801375  0.02275390    -0.74200
O657        O  0.67251914  0.21639733  0.99167846    -0.75000
O658        O  0.62934414  0.13499189  0.03228508    -0.74300
O659        O  0.69229965  0.18461331  0.99789884    -0.74800
O660        O  0.67012759  0.13903401  0.96731024    -0.74700
O661        O  0.63373566  0.13192061  0.95628428    -0.74500
C662        C  0.62194267  0.20451078  0.94136171     0.77300
C663        C  0.61708687  0.20956340  0.03644768     0.77800
C664        C  0.56930144  0.15571241  0.99147455     0.76700
C665        C  0.65017468  0.12842868  0.03405442     0.77100
C666        C  0.69164048  0.20651514  0.99539112     0.78200
C667        C  0.65527963  0.12770158  0.95558754     0.77300
Zn668      Zn  0.38331159  0.16642957  0.97774946     1.49700
Zn669      Zn  0.35631541  0.20607193  0.00547262     1.49400
Zn670      Zn  0.33199233  0.15849281  0.99970006     1.49100
Zn671      Zn  0.38087509  0.16103087  0.02800064     1.49500
O672        O  0.36267739  0.17339604  0.00272830    -1.84000
O673        O  0.38288503  0.19334964  0.95740486    -0.74600
O674        O  0.32220631  0.21448090  0.00514273    -0.74400
O675        O  0.33297666  0.13739094  0.97157952    -0.73900
O676        O  0.37135389  0.22295126  0.97853949    -0.74600
O677        O  0.36984823  0.13968744  0.96110670    -0.74200
O678        O  0.30391750  0.18174921  0.99822686    -0.74800
O679        O  0.36491083  0.13249336  0.03871136    -0.74200
O680        O  0.36739978  0.21576572  0.03666814    -0.75000
O681        O  0.32837575  0.13633806  0.02706799    -0.74300
O682        O  0.37849493  0.18310997  0.05359518    -0.74800
O683        O  0.41639968  0.15622429  0.02254029    -0.74700
O684        O  0.41828632  0.16108552  0.98501822    -0.74500
C685        C  0.37982669  0.21478075  0.96005631     0.77300
C686        C  0.30348873  0.20351060  0.00172766     0.77800
C687        C  0.34991355  0.13054575  0.95947185     0.76700
C688        C  0.34385306  0.12615389  0.03899093     0.77100
C689        C  0.37410219  0.20446671  0.05438312     0.78200
C690        C  0.42852083  0.15741059  0.00418926     0.77300
Zn691      Zn  0.52447516  0.32206134  0.11705741     1.49700
Zn692      Zn  0.49179784  0.28488931  0.13897910     1.49400
Zn693      Zn  0.49713380  0.33162417  0.16430701     1.49100
Zn694      Zn  0.47461615  0.32981958  0.11250966     1.49500
O695        O  0.49680961  0.31702803  0.13383313    -1.84000
O696        O  0.54342131  0.29468708  0.12202015    -0.74600
O697        O  0.49405305  0.27513984  0.17223470    -0.74400
O698        O  0.52719405  0.35008229  0.16677413    -0.73900
O699        O  0.51625589  0.26750961  0.12275659    -0.74600
O700        O  0.54060201  0.34912399  0.13068730    -0.74200
O701        O  0.49446317  0.30739267  0.19219230    -0.74800
O702        O  0.46644938  0.36019263  0.12498438    -0.74200
O703        O  0.45985258  0.27731340  0.12878725    -0.75000
O704        O  0.47200900  0.35660405  0.16313627    -0.74300
O705        O  0.44658751  0.31029816  0.11443488    -0.74800
O706        O  0.48378203  0.33170270  0.07762464    -0.74700
O707        O  0.52075196  0.32467376  0.08151857    -0.74500
C708        C  0.53705868  0.27387496  0.11977864     0.77300
C709        C  0.49437489  0.28527996  0.19156256     0.77800
C710        C  0.54102355  0.35708694  0.15110007     0.76700
C711        C  0.46412552  0.36749825  0.14549803     0.77100
C712        C  0.44357969  0.28942386  0.12045355     0.78200
C713        C  0.50339058  0.32833700  0.06847271     0.77300
Zn714      Zn  0.50242287  0.35089094  0.87767232     1.49700
Zn715      Zn  0.47662679  0.31560855  0.84446050     1.49400
Zn716      Zn  0.52837141  0.31961734  0.83915905     1.49100
Zn717      Zn  0.50807186  0.29866169  0.88633637     1.49500
O718        O  0.50406924  0.32135445  0.86226920    -1.84000
O719        O  0.47424938  0.36779480  0.86623332    -0.74600
O720        O  0.48201426  0.29803386  0.81448564    -0.74400
O721        O  0.53965088  0.35181998  0.83288938    -0.73900
O722        O  0.45951903  0.34484533  0.83931322    -0.74600
O723        O  0.52917165  0.36949121  0.86533962    -0.74200
O724        O  0.51964215  0.30048192  0.81000212    -0.74800
O725        O  0.53922409  0.28502492  0.88284442    -0.74200
O726        O  0.45652549  0.29556217  0.86327677    -0.75000
O727        O  0.55530816  0.30381234  0.85325042    -0.74300
O728        O  0.48252510  0.27556805  0.88341397    -0.74800
O729        O  0.50635519  0.31117321  0.91958103    -0.74700
O730        O  0.50122181  0.34848109  0.91401917    -0.74500
C731        C  0.45952219  0.36365325  0.85041387     0.77300
C732        C  0.50006520  0.29286388  0.80328659     0.77800
C733        C  0.54068056  0.36891546  0.84657967     0.76700
C734        C  0.55641573  0.28984592  0.87011547     0.77100
C735        C  0.46200957  0.27887912  0.87636809     0.78200
C736        C  0.50312044  0.33118886  0.92775387     0.77300
Zn737      Zn  0.17785847  0.37696292  0.97625565     1.49700
Zn738      Zn  0.15886961  0.38082703  0.02371971     1.49400
Zn739      Zn  0.16189318  0.32938692  0.00151015     1.49100
Zn740      Zn  0.20684593  0.35452973  0.01708375     1.49500
O741        O  0.17646718  0.35998534  0.00467621    -1.84000
O742        O  0.17339166  0.41246018  0.97904338    -0.74600
O743        O  0.12867307  0.36586778  0.03031296    -0.74400
O744        O  0.14477814  0.32945767  0.97036318    -0.73900
O745        O  0.15657056  0.41511522  0.01284987    -0.74600
O746        O  0.15449471  0.36331901  0.95472607    -0.74200
O747        O  0.13654138  0.32840537  0.02657870    -0.74800
O748        O  0.21525453  0.32105203  0.01897761    -0.74200
O749        O  0.17441869  0.38298227  0.05400961    -0.75000
O750        O  0.18611476  0.30144218  0.00411862    -0.74300
O751        O  0.20894606  0.36769659  0.04874393    -0.74800
O752        O  0.23052495  0.36769317  0.99560431    -0.74700
O753        O  0.20902599  0.37202100  0.96396867    -0.74500
C754        C  0.16446137  0.42487691  0.99470677     0.77300
C755        C  0.12397343  0.34472598  0.03423376     0.77800
C756        C  0.14298255  0.34455765  0.95426578     0.76700
C757        C  0.20665477  0.30200743  0.01244404     0.77100
C758        C  0.19442681  0.37807430  0.06126835     0.78200
C759        C  0.22853144  0.37085290  0.97393620     0.77300
Zn760      Zn  0.17057355  0.61132776  0.02497958     1.49700
Zn761      Zn  0.16443793  0.61188257  0.97467762     1.49400
Zn762      Zn  0.16192384  0.66079846  0.00117025     1.49100
Zn763      Zn  0.20924894  0.63755018  0.99604823     1.49500
O764        O  0.17690197  0.63071965  0.99904351    -1.84000
O765        O  0.16715006  0.57653785  0.01893760    -0.74600
O766        O  0.13611383  0.62772925  0.96255176    -0.74400
O767        O  0.13822656  0.65881285  0.02678008    -0.73900
O768        O  0.16021125  0.57631746  0.98160944    -0.74600
O769        O  0.14146144  0.62221103  0.03822181    -0.74200
O770        O  0.14242797  0.66450567  0.97212622    -0.74800
O771        O  0.21740857  0.67133387  0.99675529    -0.74200
O772        O  0.18730530  0.61358487  0.94991207    -0.75000
O773        O  0.18495095  0.68873784  0.00562404    -0.74300
O774        O  0.22010016  0.62592262  0.96573727    -0.74800
O775        O  0.22554757  0.62428990  0.02352561    -0.74700
O776        O  0.19629837  0.61546778  0.04680012    -0.74500
C777        C  0.16268405  0.56531711  0.00064061     0.77300
C778        C  0.13147739  0.64913534  0.96077229     0.77800
C779        C  0.13099380  0.64133685  0.03814133     0.76700
C780        C  0.20666868  0.68951570  0.00194783     0.77100
C781        C  0.20870653  0.61800121  0.94871969     0.78200
C782        C  0.21769718  0.61851293  0.04325825     0.77300
Zn783      Zn  0.31432849  0.46913788  0.15835443     1.49700
Zn784      Zn  0.34395284  0.49635911  0.12026118     1.49400
Zn785      Zn  0.29049514  0.49558896  0.11737760     1.49100
Zn786      Zn  0.31336686  0.52089459  0.16028783     1.49500
O787        O  0.31574252  0.49569701  0.13848125    -1.84000
O788        O  0.34556265  0.45601327  0.16230876    -0.74600
O789        O  0.33883609  0.49611806  0.08370936    -0.74400
O790        O  0.27066109  0.46804796  0.12408094    -0.73900
O791        O  0.36385455  0.46965363  0.13131948    -0.74600
O792        O  0.29467451  0.44558591  0.14388785    -0.74200
O793        O  0.30085755  0.49406503  0.08360094    -0.74800
O794        O  0.29404943  0.54505610  0.14627195    -0.74200
O795        O  0.36144265  0.52442740  0.13113171    -0.75000
O796        O  0.27340567  0.52505326  0.12073572    -0.74300
O797        O  0.34442590  0.53513815  0.16385009    -0.74800
O798        O  0.29754925  0.51266642  0.19103110    -0.74700
O799        O  0.29853371  0.47483917  0.18888666    -0.74500
C800        C  0.36302133  0.45654111  0.14913444     0.77300
C801        C  0.31978937  0.49478811  0.07248971     0.77800
C802        C  0.27608096  0.44861310  0.13279069     0.76700
C803        C  0.27807959  0.54355342  0.13142635     0.77100
C804        C  0.36088796  0.53656503  0.14943463     0.78200
C805        C  0.29229695  0.49294397  0.19927113     0.77300
Zn806      Zn  0.31390475  0.46553483  0.84623420     1.49700
Zn807      Zn  0.30757292  0.51747180  0.84372853     1.49400
Zn808      Zn  0.29188315  0.49082754  0.89014065     1.49100
Zn809      Zn  0.34290300  0.49800970  0.88138989     1.49500
O810        O  0.31402827  0.49280983  0.86559729    -1.84000
O811        O  0.29434792  0.46916432  0.81644539    -0.74600
O812        O  0.28491574  0.53744315  0.85836320    -0.74400
O813        O  0.28076140  0.45859591  0.89155020    -0.73900
O814        O  0.29153943  0.50700090  0.81413778    -0.74600
O815        O  0.30018195  0.43980201  0.86450089    -0.74200
O816        O  0.26741461  0.51417242  0.88380697    -0.74800
O817        O  0.34209086  0.49766899  0.91760033    -0.74200
O818        O  0.33578361  0.53697208  0.83788181    -0.75000
O819        O  0.30464922  0.49568254  0.92318390    -0.74300
O820        O  0.35582930  0.52756295  0.86934022    -0.74800
O821        O  0.36472510  0.47440733  0.87004312    -0.74700
O822        O  0.34695851  0.45625130  0.84111394    -0.74500
C823        C  0.28665239  0.48713834  0.80628842     0.77300
C824        C  0.26888204  0.53305215  0.87253561     0.77800
C825        C  0.28724802  0.44009191  0.88206639     0.76700
C826        C  0.32500028  0.49695684  0.93143017     0.77100
C827        C  0.35290646  0.53996902  0.85133856     0.78200
C828        C  0.36478959  0.46009726  0.85351521     0.77300
Zn829      Zn  0.97494664  0.66019156  0.18718270     1.49700
Zn830      Zn  0.00173341  0.61503573  0.20681618     1.49400
Zn831      Zn  0.99803240  0.62226026  0.15418339     1.49100
Zn832      Zn  0.02657292  0.65800137  0.18380616     1.49500
O833        O  0.99997779  0.63843163  0.18309105    -1.84000
O834        O  0.95178385  0.64313636  0.20570355    -0.74600
O835        O  0.00128479  0.58159666  0.19451035    -0.74400
O836        O  0.97073023  0.63463951  0.13725654    -0.73900
O837        O  0.97259078  0.61697497  0.22502785    -0.74600
O838        O  0.95958101  0.66599933  0.15602455    -0.74200
O839        O  0.99624896  0.58630580  0.15700081    -0.74800
O840        O  0.03758921  0.66442314  0.15172613    -0.74200
O841        O  0.03158162  0.61931148  0.22457166    -0.75000
O842        O  0.02478792  0.63253797  0.13471860    -0.74300
O843        O  0.05135423  0.64102353  0.19956476    -0.74800
O844        O  0.02196788  0.68664156  0.20312176    -0.74700
O845        O  0.98417759  0.68963907  0.20553488    -0.74500
C846        C  0.95356215  0.62672339  0.22017488     0.77300
C847        C  0.99822834  0.57293675  0.17455119     0.77800
C848        C  0.95835993  0.65260821  0.13865199     0.76700
C849        C  0.03733409  0.65065268  0.13473457     0.77100
C850        C  0.05047936  0.62777023  0.21702959     0.78200
C851        C  0.00431331  0.69681183  0.21092841     0.77300
Zn852      Zn  0.97398444  0.34318518  0.18746481     1.49700
Zn853      Zn  0.99251961  0.38603234  0.15642473     1.49400
Zn854      Zn  0.00003227  0.38631071  0.20991712     1.49100
Zn855      Zn  0.02531344  0.34960558  0.18077308     1.49500
O856        O  0.99753646  0.36691753  0.18349312    -1.84000
O857        O  0.95582521  0.33997476  0.15771491    -0.74600
O858        O  0.99249694  0.42188924  0.16327668    -0.74400
O859        O  0.97473941  0.37764184  0.23185253    -0.73900
O860        O  0.96297728  0.37438493  0.14171421    -0.74600
O861        O  0.95242519  0.35389033  0.21140634    -0.74200
O862        O  0.99764922  0.42074634  0.20113483    -0.74800
O863        O  0.05062006  0.36707001  0.19543596    -0.74200
O864        O  0.01701701  0.37774919  0.13295819    -0.75000
O865        O  0.03105280  0.38194498  0.22462205    -0.74300
O866        O  0.03361881  0.34623686  0.14730916    -0.74800
O867        O  0.02358102  0.31986455  0.19969903    -0.74700
O868        O  0.98619193  0.31300017  0.20184175    -0.74500
C869        C  0.95191135  0.35525573  0.14224274     0.77300
C870        C  0.99505830  0.43241687  0.18250782     0.77800
C871        C  0.95625452  0.36602219  0.22915136     0.76700
C872        C  0.04991102  0.37671436  0.21495026     0.77100
C873        C  0.03049387  0.36059397  0.13083458     0.78200
C874        C  0.00680585  0.30771684  0.20717510     0.77300
Zn875      Zn  0.11462695  0.49627359  0.34172589     1.49700
Zn876      Zn  0.15667466  0.52453989  0.32123173     1.49400
Zn877      Zn  0.15608592  0.47276673  0.31502741     1.49100
Zn878      Zn  0.11740570  0.50333864  0.28925804     1.49500
O879        O  0.13582490  0.49898852  0.31657618    -1.84000
O880        O  0.12268471  0.52086257  0.36415091    -0.74600
O881        O  0.18776212  0.51943629  0.30583362    -0.74400
O882        O  0.15460178  0.45410442  0.34523223    -0.73900
O883        O  0.15799784  0.53277131  0.35485595    -0.74600
O884        O  0.12118381  0.46716551  0.35827836    -0.74200
O885        O  0.18830779  0.48149224  0.30319484    -0.74800
O886        O  0.12574123  0.47849346  0.26687522    -0.74200
O887        O  0.14288917  0.55169229  0.30587346    -0.75000
O888        O  0.14369836  0.45336090  0.28999409    -0.74300
O889        O  0.12317450  0.53536823  0.27716391    -0.74800
O890        O  0.08209329  0.50114528  0.29548729    -0.74700
O891        O  0.08003104  0.49710857  0.33333164    -0.74500
C892        C  0.14087221  0.53242829  0.36855466     0.77300
C893        C  0.19753489  0.50109503  0.29914180     0.77800
C894        C  0.13784807  0.45313864  0.35946707     0.76700
C895        C  0.13365753  0.45847411  0.27112208     0.77100
C896        C  0.13092729  0.55305669  0.28757934     0.78200
C897        C  0.07001589  0.49900875  0.31379502     0.77300
Zn898      Zn  0.85587225  0.48896251  0.28530261     1.49700
Zn899      Zn  0.83661111  0.49982078  0.33497184     1.49400
Zn900      Zn  0.88391131  0.47145186  0.33037022     1.49100
Zn901      Zn  0.88539430  0.52058575  0.31796460     1.49500
O902        O  0.86479171  0.49497102  0.31694709    -1.84000
O903        O  0.82155715  0.48915282  0.28083368    -0.74600
O904        O  0.83457863  0.47420689  0.35949507    -0.74400
O905        O  0.88080418  0.44441819  0.31032148    -0.73900
O906        O  0.80699300  0.50070389  0.31408269    -0.74600
O907        O  0.86593291  0.45713193  0.27716201    -0.74200
O908        O  0.87102011  0.46220007  0.36063512    -0.74800
O909        O  0.92034222  0.51332067  0.31779970    -0.74200
O910        O  0.84082980  0.52932539  0.35353463    -0.75000
O911        O  0.91887668  0.47844392  0.33287697    -0.74300
O912        O  0.87717894  0.53871529  0.34541513    -0.74800
O913        O  0.87921714  0.53962633  0.29083990    -0.74700
O914        O  0.86823350  0.51440122  0.26425412    -0.74500
C915        C  0.80440058  0.49491654  0.29294239     0.77300
C916        C  0.85078456  0.46261464  0.36884430     0.77800
C917        C  0.87449096  0.44112910  0.28959504     0.76700
C918        C  0.93065026  0.49561234  0.32563343     0.77100
C919        C  0.85889859  0.54145988  0.35708076     0.78200
C920        C  0.87481058  0.53455699  0.27003827     0.77300
Zn921      Zn  0.15603435  0.01090569  0.61894776     1.49700
Zn922      Zn  0.20937734  0.01031195  0.61652912     1.49400
Zn923      Zn  0.18626933  0.03222612  0.66055111     1.49100
Zn924      Zn  0.18387702  0.98001812  0.65508136     1.49500
O925        O  0.18377942  0.00840456  0.63740363    -1.84000
O926        O  0.16135966  0.01266755  0.58329547    -0.74600
O927        O  0.22716197  0.03915215  0.62245018    -0.74400
O928        O  0.15524300  0.04641745  0.66483639    -0.73900
O929        O  0.19940282  0.01202535  0.58236710    -0.74600
O930        O  0.13844092  0.03800965  0.63116061    -0.74200
O931        O  0.20564282  0.05758543  0.64799756    -0.74800
O932        O  0.19877168  0.98341915  0.68679177    -0.74200
O933        O  0.22868738  0.98230537  0.62080078    -0.75000
O934        O  0.20211807  0.02113629  0.69041182    -0.74300
O935        O  0.20437246  0.95855721  0.63904964    -0.74800
O936        O  0.15227872  0.96530321  0.65572530    -0.74700
O937        O  0.13610904  0.98354387  0.62600250    -0.74500
C938        C  0.18009769  0.01287749  0.57180692     0.77300
C939        C  0.22195159  0.05713598  0.63357156     0.77800
C940        C  0.13899113  0.04897200  0.65018764     0.76700
C941        C  0.20610853  0.00084319  0.69790623     0.77100
C942        C  0.22275699  0.96234630  0.62786744     0.78200
C943        C  0.13573889  0.96780611  0.64142546     0.77300
Zn944      Zn  0.16554317  0.01024356  0.33838562     1.49700
Zn945      Zn  0.16156605  0.98180327  0.38609472     1.49400
Zn946      Zn  0.21041188  0.99077750  0.35992328     1.49100
Zn947      Zn  0.18255855  0.02789619  0.38730100     1.49500
O948        O  0.18027306  0.00217347  0.36754194    -1.84000
O949        O  0.14108900  0.98596242  0.33235532    -0.74600
O950        O  0.17862539  0.95241190  0.38859831    -0.74400
O951        O  0.21602064  0.98891706  0.32551672    -0.73900
O952        O  0.13252783  0.97514314  0.36843798    -0.74600
O953        O  0.18895169  0.01163508  0.31108624    -0.74200
O954        O  0.21345424  0.95926134  0.37393886    -0.74800
O955        O  0.21204437  0.04268612  0.38076068    -0.74200
O956        O  0.15665471  0.99138703  0.42038373    -0.75000
O957        O  0.23466818  0.01367431  0.37082297    -0.74300
O958        O  0.18087037  0.02067268  0.42207641    -0.74800
O959        O  0.15734688  0.04913789  0.37888352    -0.74700
O960        O  0.14763272  0.03989275  0.34293595    -0.74500
C961        C  0.12827456  0.97531887  0.34680310     0.77300
C962        C  0.19904624  0.94611156  0.38421893     0.77800
C963        C  0.20763296  0.00034183  0.30868838     0.76700
C964        C  0.23176924  0.03470203  0.37618034     0.77100
C965        C  0.16792792  0.00609090  0.43231248     0.78200
C966        C  0.14522224  0.05232009  0.36082533     0.77300
Zn967      Zn  0.29401768  0.11647705  0.49897432     1.49700
Zn968      Zn  0.31746401  0.15825582  0.52559472     1.49400
Zn969      Zn  0.34769781  0.11860527  0.50156086     1.49100
Zn970      Zn  0.31903204  0.15710391  0.47359778     1.49500
O971        O  0.31981155  0.13709011  0.50026792    -1.84000
O972        O  0.27173944  0.12454105  0.52406203    -0.74600
O973        O  0.34803462  0.16014658  0.54228368    -0.74400
O974        O  0.34137301  0.08239271  0.50205734    -0.73900
O975        O  0.29488026  0.14479190  0.54722544    -0.74600
O976        O  0.30337978  0.08303485  0.50349489    -0.74200
O977        O  0.36634309  0.12913694  0.52954377    -0.74800
O978        O  0.35082730  0.16208621  0.46282226    -0.74200
O979        O  0.30348078  0.18959010  0.51668590    -0.75000
O980        O  0.36664937  0.12886900  0.47394299    -0.74300
O981        O  0.30216567  0.18713940  0.47869682    -0.74800
O982        O  0.30371341  0.14077957  0.44783632    -0.74700
O983        O  0.28086766  0.11646945  0.46701184    -0.74500
C984        C  0.27649514  0.13342203  0.54357306     0.77300
C985        C  0.36511820  0.14644559  0.54297940     0.77800
C986        C  0.32204105  0.07162938  0.50326105     0.76700
C987        C  0.36685640  0.14734504  0.46177005     0.77100
C988        C  0.29731605  0.19777605  0.49714848     0.78200
C989        C  0.28843515  0.12514992  0.44828426     0.77300
Zn990      Zn  0.34634959  0.88206104  0.50274809     1.49700
Zn991      Zn  0.31580063  0.84270797  0.47626864     1.49400
Zn992      Zn  0.31411070  0.84696218  0.52867295     1.49100
Zn993      Zn  0.29391881  0.88842823  0.49963697     1.49500
O994        O  0.31753512  0.86538582  0.50125002    -1.84000
O995        O  0.36458479  0.87205987  0.47577512    -0.74600
O996        O  0.29880896  0.81192618  0.48579340    -0.74400
O997        O  0.34480365  0.84032260  0.54297918    -0.73900
O998        O  0.34795995  0.84015335  0.46206272    -0.74600
O999        O  0.36490986  0.87025922  0.52966524    -0.74200
O1000       O  0.29517155  0.81822092  0.52311855    -0.74800
O1001       O  0.27340164  0.88434141  0.52701499    -0.74200
O1002       O  0.29531648  0.85570172  0.45165197    -0.75000
O1003       O  0.29604463  0.86449576  0.55098587    -0.74300
O1004       O  0.27638465  0.88297565  0.47057654    -0.74800
O1005       O  0.30604024  0.92238249  0.50005718    -0.74700
O1006       O  0.34362684  0.91780970  0.50327077    -0.74500
C1007       C  0.36465886  0.85466770  0.46252580     0.77300
C1008       C  0.29030714  0.80631479  0.50540274     0.77800
C1009       C  0.36308089  0.85252175  0.54263433     0.76700
C1010       C  0.27851146  0.87679279  0.54703995     0.77100
C1011       C  0.27947306  0.87060553  0.45282214     0.78200
C1012       C  0.32622224  0.93111287  0.50187949     0.77300
Zn1013     Zn  0.99743382  0.15997106  0.61993434     1.49700
Zn1014     Zn  0.97339930  0.19371134  0.65661066     1.49400
Zn1015     Zn  0.02578734  0.18541280  0.66091346     1.49100
Zn1016     Zn  0.00665140  0.21117743  0.61473672     1.49500
O1017       O  0.00076769  0.18762143  0.63806961    -1.84000
O1018       O  0.96597392  0.14710546  0.62542588    -0.74600
O1019       O  0.98039226  0.20460206  0.68977847    -0.74400
O1020       O  0.03713488  0.15256701  0.66262947    -0.73900
O1021       O  0.94995799  0.16713669  0.65376864    -0.74600
O1022       O  0.02090419  0.13754274  0.63119187    -0.74200
O1023       O  0.01809230  0.20029966  0.69216869    -0.74800
O1024       O  0.03955978  0.22060442  0.61780118    -0.74200
O1025       O  0.95935404  0.22192058  0.64356649    -0.75000
O1026       O  0.05299412  0.20293548  0.64931752    -0.74300
O1027       O  0.98655476  0.23778209  0.62147405    -0.74800
O1028       O  0.00129436  0.20170519  0.58044507    -0.74700
O1029       O  0.00083494  0.16396633  0.58466553    -0.74500
C1030       C  0.94935155  0.15083116  0.63908610     0.77300
C1031       C  0.99930360  0.20765604  0.70064655     0.77800
C1032       C  0.03497011  0.13630512  0.64806958     0.76700
C1033       C  0.05573170  0.21597020  0.63190524     0.77100
C1034       C  0.96726392  0.23867412  0.63171934     0.78200
C1035       C  0.00087125  0.18169525  0.57155381     0.77300
Zn1036     Zn  0.02322683  0.17070861  0.38918031     1.49700
Zn1037     Zn  0.97606601  0.18866874  0.38236567     1.49400
Zn1038     Zn  0.01463439  0.21644451  0.35936450     1.49100
Zn1039     Zn  0.00079917  0.16823511  0.33841210     1.49500
O1040       O  0.00420657  0.18577476  0.36667142    -1.84000
O1041       O  0.01133767  0.17027195  0.42283759    -0.74600
O1042       O  0.96215554  0.21740999  0.37079851    -0.74400
O1043       O  0.04704745  0.22020276  0.37022646    -0.73900
O1044       O  0.97961374  0.19042108  0.41799407    -0.74600
O1045       O  0.05249870  0.18805432  0.39045063    -0.74200
O1046       O  0.99367156  0.23854938  0.37559401    -0.74800
O1047       O  0.00091220  0.19048391  0.30947625    -0.74200
O1048       O  0.95646192  0.16218434  0.37355702    -0.75000
O1049       O  0.01304211  0.22314428  0.32527354    -0.74300
O1050       O  0.97104742  0.14919036  0.34072522    -0.74800
O1051       O  0.02747234  0.14526200  0.33884249    -0.74700
O1052       O  0.03224799  0.14038067  0.37688144    -0.74500
C1053       C  0.99439793  0.18107407  0.43142259     0.77300
C1054       C  0.97190254  0.23611673  0.37639636     0.77800
C1055       C  0.05970954  0.20722374  0.38259900     0.76700
C1056       C  0.00674155  0.21177695  0.30764150     0.77100
C1057       C  0.95593926  0.14831033  0.35667362     0.78200
C1058       C  0.03683869  0.13504203  0.35611168     0.77300
Zn1059     Zn  0.11999119  0.29182762  0.50346724     1.49700
Zn1060     Zn  0.15975188  0.31510516  0.53268214     1.49400
Zn1061     Zn  0.16319556  0.31750848  0.48035273     1.49100
Zn1062     Zn  0.12220284  0.34529704  0.50422756     1.49500
O1063       O  0.14079599  0.31755851  0.50530414    -1.84000
O1064       O  0.12680604  0.26973996  0.52934795    -0.74600
O1065       O  0.19136976  0.30160026  0.52661510    -0.74400
O1066       O  0.15027365  0.29907029  0.45488375    -0.73900
O1067       O  0.14605816  0.29199377  0.55395901    -0.74600
O1068       O  0.12460175  0.27683199  0.47304160    -0.74200
O1069       O  0.19370536  0.30172937  0.48862047    -0.74800
O1070       O  0.13200476  0.36310436  0.47555870    -0.74200
O1071       O  0.16064329  0.34549980  0.54873428    -0.75000
O1072       O  0.16647767  0.34913068  0.46664128    -0.74300
O1073       O  0.13169752  0.36436946  0.53190693    -0.74800
O1074       O  0.08629559  0.33938543  0.50400211    -0.74700
O1075       O  0.08575779  0.30134935  0.50517518    -0.74500
C1076       C  0.13540820  0.27346367  0.54922224     0.77300
C1077       C  0.20188064  0.29605126  0.50826736     0.77800
C1078       C  0.13583266  0.28265205  0.45509126     0.76700
C1079       C  0.15046901  0.36375151  0.46363208     0.77100
C1080       C  0.14749133  0.36292330  0.54726327     0.78200
C1081       C  0.07492254  0.32043608  0.50474897     0.77300
Zn1082     Zn  0.84691616  0.32232681  0.53089042     1.49700
Zn1083     Zn  0.88496597  0.35196821  0.50280618     1.49400
Zn1084     Zn  0.89343627  0.30097197  0.51229974     1.49100
Zn1085     Zn  0.85197907  0.31308718  0.47918546     1.49500
O1086       O  0.86932075  0.32247773  0.50618099    -1.84000
O1087       O  0.84024634  0.35490436  0.53930745    -0.74600
O1088       O  0.92161713  0.35015968  0.50195530    -0.74400
O1089       O  0.89253411  0.29315624  0.54528530    -0.73900
O1090       O  0.87327542  0.37188033  0.52893482    -0.74600
O1091       O  0.86124324  0.30969152  0.55950315    -0.74200
O1092       O  0.92610485  0.31280190  0.50692546    -0.74800
O1093       O  0.87406826  0.29343330  0.46207176    -0.74200
O1094       O  0.87217135  0.36643868  0.47369057    -0.75000
O1095       O  0.88938133  0.27442869  0.49164358    -0.74300
O1096       O  0.84624330  0.34161331  0.45967221    -0.74800
O1097       O  0.82206058  0.29477904  0.48697505    -0.74700
O1098       O  0.81846634  0.30245743  0.52414539    -0.74500
C1099       C  0.85441270  0.37174991  0.54027505     0.77300
C1100       C  0.93490260  0.33265978  0.50369836     0.77800
C1101       C  0.87985272  0.29874819  0.56209407     0.76700
C1102       C  0.88813948  0.27870059  0.47014913     0.77100
C1103       C  0.85644665  0.36116411  0.45915357     0.78200
C1104       C  0.81131052  0.29223757  0.50605135     0.77300
C1105       C  0.04874745  0.31999075  0.50511604    -0.05100
C1106       C  0.03719252  0.29891623  0.50901314    -0.05000
C1107       C  0.01308999  0.29741043  0.50926710    -0.23200
C1108       C  0.99945461  0.31692254  0.50556588     0.19000
C1109       C  0.01038306  0.33831525  0.50154884     0.16200
C1110       C  0.03494420  0.33978889  0.50139315    -0.18200
C1111       C  0.99641546  0.35774164  0.49781019    -0.20000
C1112       C  0.97213661  0.35602906  0.49829820    -0.12600
C1113       C  0.96095838  0.33481702  0.50245785     0.04100
C1114       C  0.97508569  0.31529631  0.50593654    -0.24700
H1115       H  0.04685659  0.28332312  0.51197242     0.09100
H1116       H  0.00507738  0.28081150  0.51239120     0.12800
H1117       H  0.04323241  0.35624230  0.49826009     0.12700
H1118       H  0.00428211  0.37438508  0.49460818     0.12400
H1119       H  0.96209449  0.37140432  0.49550187     0.13000
H1120       H  0.96712478  0.29868821  0.50915433     0.14900
C1121       C  0.08248459  0.21537001  0.38998244    -0.05100
C1122       C  0.09552697  0.20188882  0.40535283    -0.05000
C1123       C  0.11268061  0.21198222  0.41868810    -0.23200
C1124       C  0.11674613  0.23562507  0.41686858     0.19000
C1125       C  0.10584519  0.24861755  0.39928627     0.16200
C1126       C  0.08909752  0.23819835  0.38551881    -0.18200
C1127       C  0.10981844  0.27235469  0.39763477    -0.20000
C1128       C  0.12216000  0.28347964  0.41494255    -0.12600
C1129       C  0.13061257  0.27083870  0.43376140     0.04100
C1130       C  0.12930972  0.24687512  0.43392807    -0.24700
H1131       H  0.09115892  0.18402597  0.40858399     0.09100
H1132       H  0.12127745  0.20173981  0.43176396     0.12800
H1133       H  0.07943363  0.24858940  0.37333690     0.12700
H1134       H  0.10179019  0.28251409  0.38413691     0.12400
H1135       H  0.12317992  0.30208539  0.41477383     0.13000
H1136       H  0.13603137  0.23728089  0.44855448     0.14900
C1137       C  0.90580435  0.26947074  0.45496507    -0.05100
C1138       C  0.92714015  0.26313461  0.46445220    -0.05000
C1139       C  0.94578712  0.25891290  0.45023570    -0.23200
C1140       C  0.94320961  0.26036048  0.42630276     0.19000
C1141       C  0.92169443  0.26626927  0.41654641     0.16200
C1142       C  0.90317859  0.27102908  0.43096929    -0.18200
C1143       C  0.91892995  0.26667768  0.39254225    -0.20000
C1144       C  0.93676809  0.25935403  0.37846448    -0.12600
C1145       C  0.95777942  0.25266663  0.38823491     0.04100
C1146       C  0.96139482  0.25450822  0.41197852    -0.24700
H1147       H  0.92976005  0.26250846  0.48294055     0.09100
H1148       H  0.96217428  0.25448258  0.45795763     0.12800
H1149       H  0.88683924  0.27616752  0.42356701     0.12700
H1150       H  0.90256210  0.27113922  0.38479722     0.12400
H1151       H  0.93366338  0.25729426  0.36017281     0.13000
H1152       H  0.97739477  0.24850351  0.41952328     0.14900
C1153       C  0.13111863  0.25670689  0.56761246    -0.05100
C1154       C  0.12863740  0.23332915  0.56238568    -0.05000
C1155       C  0.11753907  0.21855177  0.57778717    -0.23200
C1156       C  0.10790767  0.22741276  0.59790802     0.19000
C1157       C  0.11246800  0.25044591  0.60429296     0.16200
C1158       C  0.12499268  0.26471595  0.58943605    -0.18200
C1159       C  0.10171773  0.25971524  0.62367414    -0.20000
C1160       C  0.08427699  0.24732483  0.63467066    -0.12600
C1161       C  0.07835833  0.22534117  0.62694337     0.04100
C1162       C  0.09129057  0.21474000  0.60984778    -0.24700
H1163       H  0.13377608  0.22690517  0.54572258     0.09100
H1164       H  0.11442230  0.20087554  0.57283809     0.12800
H1165       H  0.12698293  0.28280609  0.59343873     0.12700
H1166       H  0.10508787  0.27729286  0.62880530     0.12400
H1167       H  0.07417731  0.25556628  0.64785218     0.13000
H1168       H  0.08632477  0.19777897  0.60387477     0.14900
C1169       C  0.88859533  0.29378244  0.58498508    -0.05100
C1170       C  0.87809198  0.27716756  0.59901736    -0.05000
C1171       C  0.89095346  0.26635748  0.61627434    -0.23200
C1172       C  0.91444377  0.27160488  0.61864345     0.19000
C1173       C  0.92414557  0.29019610  0.60610749     0.16200
C1174       C  0.91077045  0.30176031  0.58995364    -0.18200
C1175       C  0.94778219  0.29469409  0.60730741    -0.20000
C1176       C  0.96216849  0.27879407  0.61790454    -0.12600
C1177       C  0.95282919  0.25887355  0.62807687     0.04100
C1178       C  0.92892495  0.25658091  0.63049201    -0.24700
H1179       H  0.86087137  0.27105890  0.59521084     0.09100
H1180       H  0.88326817  0.25226230  0.62590501     0.12800
H1181       H  0.91862225  0.31475773  0.57893157     0.12700
H1182       H  0.95534257  0.30906967  0.59798672     0.12400
H1183       H  0.98060134  0.28111781  0.61648444     0.13000
H1184       H  0.92164734  0.24135655  0.63862230     0.14900
C1185       C  0.00109835  0.17866953  0.54572633    -0.05100
C1186       C  0.01283660  0.15991845  0.53622913    -0.05000
C1187       C  0.01397189  0.15673372  0.51227923    -0.23200
C1188       C  0.00285056  0.17186529  0.49696540     0.19000
C1189       C  0.99030578  0.19041058  0.50608189     0.16200
C1190       C  0.98984505  0.19397970  0.53034145    -0.18200
C1191       C  0.97842574  0.20495224  0.49069648    -0.20000
C1192       C  0.97922480  0.20136917  0.46672446    -0.12600
C1193       C  0.99232627  0.18349637  0.45726032     0.04100
C1194       C  0.00409128  0.16873968  0.47273947    -0.24700
H1195       H  0.02163819  0.14783974  0.54742500     0.09100
H1196       H  0.02354855  0.14229682  0.50572809     0.12800
H1197       H  0.98044416  0.20837664  0.53723463     0.12700
H1198       H  0.96849093  0.21917300  0.49718980     0.12400
H1199       H  0.96994967  0.21299338  0.45546374     0.13000
H1200       H  0.01414707  0.15473863  0.46595665     0.14900
C1201       C  0.22278861  0.28114405  0.51005316    -0.05100
C1202       C  0.22963401  0.27238665  0.53171859    -0.05000
C1203       C  0.24665935  0.25555606  0.53364256    -0.23200
C1204       C  0.25738640  0.24694848  0.51394096     0.19000
C1205       C  0.25150087  0.25617997  0.49210617     0.16200
C1206       C  0.23433525  0.27325156  0.49027393    -0.18200
C1207       C  0.26225839  0.24748858  0.47241729    -0.20000
C1208       C  0.27781289  0.22921743  0.47422906    -0.12600
C1209       C  0.28320067  0.21922928  0.49577637     0.04100
C1210       C  0.27324148  0.22870182  0.51567072    -0.24700
H1211       H  0.22117579  0.27791313  0.54728968     0.09100
H1212       H  0.25095516  0.24878642  0.55055759     0.12800
H1213       H  0.22933235  0.27964234  0.47340482     0.12700
H1214       H  0.25814709  0.25437471  0.45550474     0.12400
H1215       H  0.28518717  0.22248661  0.45858641     0.13000
H1216       H  0.27705513  0.22127290  0.53243122     0.14900
C1217       C  0.32954018  0.95705170  0.50244026    -0.05100
C1218       C  0.35176435  0.96696057  0.50305754    -0.05000
C1219       C  0.35507272  0.99102565  0.50351152    -0.23200
C1220       C  0.33626555  0.00612452  0.50346375     0.19000
C1221       C  0.31387729  0.99650821  0.50302866     0.16200
C1222       C  0.31064507  0.97226022  0.50245778    -0.18200
C1223       C  0.29499252  0.01133326  0.50313967    -0.20000
C1224       C  0.29808116  0.03526244  0.50353281    -0.12600
C1225       C  0.32017894  0.04551978  0.50375171     0.04100
C1226       C  0.33935228  0.03054130  0.50375901    -0.24700
H1227       H  0.36676305  0.95604951  0.50310685     0.09100
H1228       H  0.37244972  0.99782565  0.50388638     0.12800
H1229       H  0.29334054  0.96525583  0.50207775     0.12700
H1230       H  0.27765488  0.00440892  0.50284861     0.12400
H1231       H  0.28282969  0.04582166  0.50345520     0.13000
H1232       H  0.35655483  0.03778667  0.50388910     0.14900
C1233       C  0.25132245  0.05041437  0.37926691    -0.05100
C1234       C  0.27203172  0.04230684  0.38856062    -0.05000
C1235       C  0.28640824  0.05728980  0.40069662    -0.23200
C1236       C  0.27969045  0.08014989  0.40403150     0.19000
C1237       C  0.26037107  0.08894448  0.39214840     0.16200
C1238       C  0.24693580  0.07414004  0.37889551    -0.18200
C1239       C  0.25301612  0.11149687  0.39616774    -0.20000
C1240       C  0.26313807  0.12431946  0.41376314    -0.12600
C1241       C  0.28103878  0.11484158  0.42676715     0.04100
C1242       C  0.29021626  0.09345780  0.42101161    -0.24700
H1243       H  0.27582427  0.02410561  0.38868248     0.09100
H1244       H  0.30140314  0.05045631  0.40943715     0.12800
H1245       H  0.23117534  0.08049830  0.37116495     0.12700
H1246       H  0.23827240  0.11844202  0.38708693     0.12400
H1247       H  0.25615122  0.14092814  0.41812893     0.13000
H1248       H  0.30415430  0.08634915  0.43124296     0.14900
C1249       C  0.26456553  0.87468546  0.43297997    -0.05100
C1250       C  0.27416326  0.87955643  0.41136032    -0.05000
C1251       C  0.26122403  0.89122290  0.39473094    -0.23200
C1252       C  0.23877776  0.89812697  0.39984733     0.19000
C1253       C  0.22825936  0.89049980  0.42049810     0.16200
C1254       C  0.24120054  0.87852325  0.43682931    -0.18200
C1255       C  0.20588662  0.89728741  0.42571543    -0.20000
C1256       C  0.19517214  0.91391675  0.41218449    -0.12600
C1257       C  0.20674979  0.92382190  0.39330489     0.04100
C1258       C  0.22773736  0.91459132  0.38613581    -0.24700
H1259       H  0.29220587  0.87642677  0.40819478     0.09100
H1260       H  0.26939349  0.89657617  0.37880253     0.12800
H1261       H  0.23382006  0.87438231  0.45351165     0.12700
H1262       H  0.19747793  0.89123628  0.44127717     0.12400
H1263       H  0.17875963  0.92048364  0.41779262     0.13000
H1264       H  0.23650490  0.92184296  0.37128154     0.14900
C1265       C  0.05500274  0.11784421  0.35266000    -0.05100
C1266       C  0.05629538  0.10442289  0.33271442    -0.05000
C1267       C  0.07446407  0.08895571  0.32991359    -0.23200
C1268       C  0.09180586  0.08715063  0.34678129     0.19000
C1269       C  0.09065474  0.10096157  0.36664579     0.16200
C1270       C  0.07226558  0.11590288  0.36953118    -0.18200
C1271       C  0.10794740  0.09976345  0.38339445    -0.20000
C1272       C  0.12608510  0.08459275  0.38083496    -0.12600
C1273       C  0.12728102  0.07018585  0.36152506     0.04100
C1274       C  0.11017281  0.07175962  0.34432520    -0.24700
H1275       H  0.04323916  0.10580532  0.31943180     0.09100
H1276       H  0.07504816  0.07855954  0.31452394     0.12800
H1277       H  0.07173356  0.12653354  0.38479383     0.12700
H1278       H  0.10733325  0.11040939  0.39862273     0.12400
H1279       H  0.13897280  0.08383445  0.39433737     0.13000
H1280       H  0.11082473  0.06069735  0.32940596     0.14900
C1281       C  0.23328249  0.07844364  0.62698889    -0.05100
C1282       C  0.25676036  0.08157556  0.63129452    -0.05000
C1283       C  0.26924016  0.09759944  0.61835903    -0.23200
C1284       C  0.25848694  0.10938401  0.60013733     0.19000
C1285       C  0.23449098  0.10711497  0.59667319     0.16200
C1286       C  0.22186794  0.09236806  0.61092057    -0.18200
C1287       C  0.22404947  0.11723063  0.57730683    -0.20000
C1288       C  0.23764130  0.12728583  0.56020821    -0.12600
C1289       C  0.26153106  0.12844680  0.56307370     0.04100
C1290       C  0.27170183  0.12099240  0.58372177    -0.24700
H1291       H  0.26565259  0.07056636  0.64349604     0.09100
H1292       H  0.28762381  0.09909012  0.62111164     0.12800
H1293       H  0.20376911  0.08934612  0.60736435     0.12700
H1294       H  0.20569727  0.11557585  0.57443096    -0.02000
H1295       H  0.22968975  0.13315055  0.54432489     0.13000
H1296       H  0.29024941  0.12165583  0.58570230     0.14900
C1297       C  0.26498741  0.88437738  0.56637132    -0.05100
C1298       C  0.24103501  0.88203524  0.56613812    -0.05000
C1299       C  0.22791361  0.89393653  0.58205816    -0.23200
C1300       C  0.23871848  0.90925113  0.59724070     0.19000
C1301       C  0.26300649  0.91087149  0.59799576     0.16200
C1302       C  0.27601074  0.89756985  0.58316726    -0.18200
C1303       C  0.27378586  0.92755879  0.61164508    -0.20000
C1304       C  0.26056166  0.94396825  0.62266827    -0.12600
C1305       C  0.23656305  0.94288045  0.62116582     0.04100
C1306       C  0.22566064  0.92473386  0.60973102    -0.24700
H1307       H  0.23253517  0.87181229  0.55306446     0.09100
H1308       H  0.20933870  0.89261606  0.58123067     0.12800
H1309       H  0.29457411  0.89953840  0.58286433     0.12700
H1310       H  0.29235734  0.92903968  0.61227194     0.12400
H1311       H  0.26899577  0.95801897  0.63155155     0.13000
H1312       H  0.20705323  0.92429466  0.60835966     0.14900
C1313       C  0.12048480  0.06542538  0.65505900    -0.05100
C1314       C  0.12387026  0.08317556  0.67104643    -0.05000
C1315       C  0.10704844  0.09989700  0.67415111    -0.23200
C1316       C  0.08652397  0.09902861  0.66141884     0.19000
C1317       C  0.08269729  0.08075082  0.64592134     0.16200
C1318       C  0.09965100  0.06412122  0.64284972    -0.18200
C1319       C  0.06225561  0.07974844  0.63318522    -0.20000
C1320       C  0.04616028  0.09725221  0.63495184    -0.12600
C1321       C  0.05013684  0.11606182  0.64955962     0.04100
C1322       C  0.07013522  0.11651622  0.66326886    -0.24700
H1323       H  0.13981925  0.08453866  0.68064581     0.09100
H1324       H  0.11028632  0.11374161  0.68614210     0.12800
H1325       H  0.09677270  0.05038296  0.63062743     0.12700
H1326       H  0.05900677  0.06577477  0.62134256     0.12400
H1327       H  0.03088953  0.09641196  0.62424576     0.13000
H1328       H  0.07350171  0.13097760  0.67448561     0.14900
C1329       C  0.16623225  0.00611102  0.45831696    -0.05100
C1330       C  0.14805417  0.99464944  0.46968172    -0.05000
C1331       C  0.14650234  0.99437865  0.49391772    -0.23200
C1332       C  0.16334227  0.00517894  0.50763632     0.19000
C1333       C  0.18186167  0.01651883  0.49655966     0.16200
C1334       C  0.18303019  0.01719740  0.47212116    -0.18200
C1335       C  0.19912582  0.02669280  0.51015352    -0.20000
C1336       C  0.19828910  0.02541370  0.53432696    -0.12600
C1337       C  0.17991376  0.01441481  0.54580674     0.04100
C1338       C  0.16224237  0.00452475  0.53215349    -0.24700
H1339       H  0.13485081  0.98594380  0.45977721     0.09100
H1340       H  0.13218848  0.98545584  0.50195091     0.12800
H1341       H  0.19733473  0.02594947  0.46387014     0.12700
H1342       H  0.21353663  0.03541791  0.50207024     0.12400
H1343       H  0.21210181  0.03324390  0.54414707     0.13000
H1344       H  0.14804249  0.99575714  0.54056086     0.14900
C1345       C  0.84679963  0.44889952  0.38971714    -0.05100
C1346       C  0.85740483  0.45583075  0.41026750    -0.05000
C1347       C  0.85981687  0.44040419  0.42862745    -0.23200
C1348       C  0.85209728  0.41764704  0.42645903     0.19000
C1349       C  0.84049196  0.41076667  0.40616437     0.16200
C1350       C  0.83770903  0.42657233  0.38792951    -0.18200
C1351       C  0.83305043  0.38788858  0.40401303    -0.20000
C1352       C  0.83774825  0.37181515  0.42145497    -0.12600
C1353       C  0.85003555  0.37833498  0.44130217     0.04100
C1354       C  0.85673609  0.40145008  0.44383489    -0.24700
H1355       H  0.86496506  0.47284559  0.41160783     0.09100
H1356       H  0.86873088  0.44595090  0.44406803     0.12800
H1357       H  0.83010616  0.42104776  0.37178395     0.12700
H1358       H  0.82410559  0.38229752  0.38860874     0.12400
H1359       H  0.83229570  0.35414711  0.41912860     0.13000
H1360       H  0.86600009  0.40679247  0.45915646     0.14900
C1361       C  0.13712424  0.43587267  0.37829962    -0.05100
C1362       C  0.11590938  0.43108294  0.38895644    -0.05000
C1363       C  0.11458842  0.41652719  0.40802706    -0.23200
C1364       C  0.13446267  0.40640072  0.41692584     0.19000
C1365       C  0.15590929  0.41063224  0.40623287     0.16200
C1366       C  0.15712713  0.42531690  0.38684696    -0.18200
C1367       C  0.17568010  0.40014302  0.41523365    -0.20000
C1368       C  0.17410058  0.38534920  0.43432961    -0.12600
C1369       C  0.15277584  0.38104160  0.44494033     0.04100
C1370       C  0.13308245  0.39190133  0.43623480    -0.24700
H1371       H  0.10018733  0.43882235  0.38265601     0.09100
H1372       H  0.09800412  0.41331935  0.41591092     0.12800
H1373       H  0.17357349  0.42895729  0.37885114     0.12700
H1374       H  0.19229313  0.40314891  0.40735286     0.12400
H1375       H  0.18953793  0.37709129  0.44065559     0.13000
H1376       H  0.11647925  0.38851412  0.44403023     0.14900
C1377       C  0.04400579  0.49908480  0.31231679    -0.05100
C1378       C  0.03283325  0.50603209  0.29182902    -0.05000
C1379       C  0.00869553  0.50709143  0.29036750    -0.23200
C1380       C  0.99482979  0.50089427  0.30925469     0.19000
C1381       C  0.00561627  0.49318753  0.32974976     0.16200
C1382       C  0.03001805  0.49259181  0.33126960    -0.18200
C1383       C  0.99174661  0.48612984  0.34834656    -0.20000
C1384       C  0.96761184  0.48669534  0.34671266    -0.12600
C1385       C  0.95653638  0.49495544  0.32672700     0.04100
C1386       C  0.97042993  0.50215439  0.30799690    -0.24700
H1387       H  0.04281843  0.51106650  0.27688951     0.09100
H1388       H  0.00086094  0.51280562  0.27436724     0.12800
H1389       H  0.03808553  0.48693727  0.34717592     0.12700
H1390       H  0.99957715  0.48000526  0.36419326     0.12400
H1391       H  0.95750973  0.48101010  0.36134995     0.13000
H1392       H  0.96225426  0.50827606  0.29231682     0.14900
C1393       C  0.07133090  0.38331051  0.22606218    -0.05100
C1394       C  0.07542481  0.37712350  0.24905890    -0.05000
C1395       C  0.09333576  0.38747840  0.26119963    -0.23200
C1396       C  0.10624562  0.40507661  0.25073974     0.19000
C1397       C  0.10287821  0.41048671  0.22714190     0.16200
C1398       C  0.08599011  0.39876171  0.21466215    -0.18200
C1399       C  0.11434720  0.42938416  0.21725083    -0.20000
C1400       C  0.12652135  0.44453822  0.23133324    -0.12600
C1401       C  0.12842409  0.44002611  0.25502639     0.04100
C1402       C  0.12008770  0.41927950  0.26422253    -0.24700
H1403       H  0.06413559  0.36506326  0.25784084     0.09100
H1404       H  0.09570052  0.38321867  0.27926731     0.12800
H1405       H  0.08244351  0.40361980  0.19691486     0.12700
H1406       H  0.11198645  0.43369456  0.19919665     0.12400
H1407       H  0.13308843  0.46047974  0.22407813     0.13000
H1408       H  0.12140987  0.41594651  0.28260627     0.14900
C1409       C  0.93817287  0.36830464  0.24624523    -0.05100
C1410       C  0.94393193  0.36997501  0.26963903    -0.05000
C1411       C  0.92849935  0.37964692  0.28496449    -0.23200
C1412       C  0.90794117  0.38896515  0.27656551     0.19000
C1413       C  0.90117179  0.38524977  0.25344536     0.16200
C1414       C  0.91599060  0.37379901  0.23865374    -0.18200
C1415       C  0.88151246  0.39604342  0.24462890    -0.20000
C1416       C  0.87096457  0.41322126  0.25734544    -0.12600
C1417       C  0.87934740  0.41873575  0.27933962     0.04100
C1418       C  0.89610135  0.40482273  0.28976429    -0.24700
H1419       H  0.96096156  0.36539768  0.27565855     0.09100
H1420       H  0.93380010  0.38222154  0.30269069     0.12800
H1421       H  0.91169675  0.37249729  0.22049556     0.12700
H1422       H  0.87593625  0.39312551  0.22704575     0.12400
H1423       H  0.85754753  0.42335388  0.24931259     0.13000
H1424       H  0.90238929  0.40870449  0.30693033     0.14900
C1425       C  0.01147577  0.28868565  0.22415752    -0.05100
C1426       C  0.03096717  0.29040386  0.23853822    -0.05000
C1427       C  0.03443564  0.27500630  0.25687205    -0.23200
C1428       C  0.01873356  0.25709050  0.26114348     0.19000
C1429       C  0.99965495  0.25423319  0.24626220     0.16200
C1430       C  0.99590131  0.27027090  0.22805802    -0.18200
C1431       C  0.98443366  0.23571483  0.25032493    -0.20000
C1432       C  0.98754960  0.22087543  0.26938954    -0.12600
C1433       C  0.00569253  0.22445515  0.28507718     0.04100
C1434       C  0.02146829  0.24244522  0.28047171    -0.24700
H1435       H  0.04313552  0.30441035  0.23627042     0.09100
H1436       H  0.04924144  0.27740486  0.26801015     0.12800
H1437       H  0.98077778  0.26863346  0.21721849     0.12700
H1438       H  0.96979598  0.23300484  0.23904864     0.12400
H1439       H  0.97506876  0.20732633  0.27253057     0.13000
H1440       H  0.03563401  0.24539996  0.29230892     0.14900
C1441       C  0.07209833  0.62077584  0.22767877    -0.05100
C1442       C  0.08991674  0.61300995  0.21356604    -0.05000
C1443       C  0.10835167  0.60113108  0.22317000    -0.23200
C1444       C  0.10915612  0.59723146  0.24697677     0.19000
C1445       C  0.09275881  0.60765396  0.26147003     0.16200
C1446       C  0.07413671  0.61926703  0.25165711    -0.18200
C1447       C  0.09399980  0.60427771  0.28534854    -0.20000
C1448       C  0.10933460  0.58828148  0.29443672    -0.12600
C1449       C  0.12324255  0.57551159  0.27965608     0.04100
C1450       C  0.12436549  0.58111144  0.25623020    -0.24700
H1451       H  0.08862142  0.61446098  0.19497877     0.09100
H1452       H  0.12104123  0.59367329  0.21189327     0.12800
H1453       H  0.06052877  0.62575475  0.26249069     0.12700
H1454       H  0.08189912  0.61250448  0.29672887     0.12400
H1455       H  0.10844494  0.58403185  0.31263090     0.13000
H1456       H  0.13528676  0.57123494  0.24495022     0.14900
C1457       C  0.93265264  0.61614506  0.22883279    -0.05100
C1458       C  0.92157217  0.62422685  0.24845601    -0.05000
C1459       C  0.90357354  0.61140411  0.25805512    -0.23200
C1460       C  0.89711894  0.59027230  0.24828856     0.19000
C1461       C  0.90734211  0.58299005  0.22758091     0.16200
C1462       C  0.92483917  0.59624828  0.21779539    -0.18200
C1463       C  0.90147174  0.56155948  0.21823511    -0.20000
C1464       C  0.88797794  0.54614016  0.23091982    -0.12600
C1465       C  0.87994331  0.55236277  0.25271671     0.04100
C1466       C  0.88265279  0.57517535  0.26021210    -0.24700
H1467       H  0.92748677  0.63976610  0.25683174     0.09100
H1468       H  0.89578573  0.61720575  0.27389159     0.12800
H1469       H  0.93354399  0.59027918  0.20247580     0.12700
H1470       H  0.90899307  0.55594567  0.20219708     0.12400
H1471       H  0.88586403  0.52871909  0.22477729     0.13000
H1472       H  0.87601743  0.58020509  0.27685960     0.14900
C1473       C  0.99670638  0.54698367  0.17192384    -0.05100
C1474       C  0.99137631  0.53688769  0.15050006    -0.05000
C1475       C  0.98968070  0.51278597  0.14805660    -0.23200
C1476       C  0.99330507  0.49785557  0.16694821     0.19000
C1477       C  0.99856048  0.50766203  0.18855879     0.16200
C1478       C  0.00019820  0.53193577  0.19092672    -0.18200
C1479       C  0.00214832  0.49299321  0.20752771    -0.20000
C1480       C  0.00070009  0.46900796  0.20524210    -0.12600
C1481       C  0.99565911  0.45856804  0.18389725     0.04100
C1482       C  0.99189848  0.47341278  0.16468234    -0.24700
H1483       H  0.98841767  0.54767300  0.13550301     0.09100
H1484       H  0.98555176  0.50581759  0.13127512     0.12800
H1485       H  0.00424794  0.53908580  0.20765789     0.12700
H1486       H  0.00618941  0.50008526  0.22428802     0.12400
H1487       H  0.00378117  0.45854282  0.22044026     0.13000
H1488       H  0.98799284  0.46602669  0.14803033     0.14900
C1489       C  0.27749873  0.49064440  0.22030290    -0.05100
C1490       C  0.26858721  0.46888719  0.22653714    -0.05000
C1491       C  0.25251235  0.46640559  0.24429161    -0.23200
C1492       C  0.24487542  0.48561118  0.25644613     0.19000
C1493       C  0.25419909  0.50750550  0.25108719     0.16200
C1494       C  0.27043172  0.50992639  0.23306713    -0.18200
C1495       C  0.24649271  0.52666980  0.26335402    -0.20000
C1496       C  0.22903392  0.52434291  0.27988034    -0.12600
C1497       C  0.21886273  0.50278245  0.28471536     0.04100
C1498       C  0.22745189  0.48335578  0.27323520    -0.24700
H1499       H  0.27348292  0.45368683  0.21714689     0.09100
H1500       H  0.24563171  0.44945630  0.24814156     0.12800
H1501       H  0.27700002  0.52684635  0.22857457     0.12700
H1502       H  0.25347170  0.54361393  0.25967742     0.12400
H1503       H  0.22291641  0.53965535  0.28831057     0.13000
H1504       H  0.21985129  0.46659498  0.27653716     0.14900
C1505       C  0.31858070  0.49412469  0.04621559    -0.05100
C1506       C  0.29685534  0.49104020  0.03568154    -0.05000
C1507       C  0.29408893  0.49093128  0.01167369    -0.23200
C1508       C  0.31293095  0.49392028  0.99697224     0.19000
C1509       C  0.33505011  0.49675157  0.00674793     0.16200
C1510       C  0.33783139  0.49682318  0.03132343    -0.18200
C1511       C  0.35380102  0.49955771  0.99161454    -0.20000
C1512       C  0.35062293  0.49969367  0.96740514    -0.12600
C1513       C  0.32857829  0.49712552  0.95742474     0.04100
C1514       C  0.30983814  0.49415546  0.97266860    -0.24700
H1515       H  0.28159738  0.48877142  0.04609521     0.09100
H1516       H  0.27697934  0.48861101  0.00457756     0.12800
H1517       H  0.35479053  0.49918459  0.03874148     0.12700
H1518       H  0.37101128  0.50169003  0.99849685     0.12400
H1519       H  0.36552051  0.50186696  0.95646142     0.13000
H1520       H  0.29269036  0.49193088  0.96563191     0.14900
C1521       C  0.23366488  0.61363396  0.06227123    -0.05100
C1522       C  0.25748323  0.61352431  0.05849242    -0.05000
C1523       C  0.27209196  0.60335286  0.07461544    -0.23200
C1524       C  0.26287898  0.59268031  0.09425930     0.19000
C1525       C  0.23917150  0.59456064  0.09911222     0.16200
C1526       C  0.22487185  0.60579964  0.08344609    -0.18200
C1527       C  0.22968841  0.58282824  0.11806370    -0.20000
C1528       C  0.24302910  0.56713421  0.13035820    -0.12600
C1529       C  0.26608281  0.56415878  0.12446562     0.04100
C1530       C  0.27638642  0.57799629  0.10759023    -0.24700
H1531       H  0.26466028  0.61990282  0.04246149     0.09100
H1532       H  0.29026397  0.60217724  0.07080111     0.12800
H1533       H  0.20653926  0.60619095  0.08670822     0.12700
H1534       H  0.21155493  0.58416837  0.12199220     0.12400
H1535       H  0.23506668  0.55629485  0.14337123     0.13000
H1536       H  0.29422101  0.57522803  0.10301679     0.14900
C1537       C  0.22069171  0.61146274  0.92770104    -0.05100
C1538       C  0.24358465  0.61814427  0.92385970    -0.05000
C1539       C  0.25670411  0.60657206  0.90765168    -0.23200
C1540       C  0.24726289  0.58757707  0.89618401     0.19000
C1541       C  0.22370540  0.58205828  0.89876289     0.16200
C1542       C  0.21032752  0.59488674  0.91357761    -0.18200
C1543       C  0.21456504  0.56203378  0.88895694    -0.20000
C1544       C  0.22921950  0.54621921  0.87899479    -0.12600
C1545       C  0.25272482  0.55112349  0.87753505     0.04100
C1546       C  0.26146840  0.57243247  0.88456038    -0.24700
H1547       H  0.25169399  0.63122958  0.93435818     0.09100
H1548       H  0.27471112  0.61105231  0.90573593     0.12800
H1549       H  0.19258704  0.58974073  0.91632472     0.12700
H1550       H  0.19654075  0.55762448  0.89088778     0.12400
H1551       H  0.22246365  0.52976397  0.87343234     0.13000
H1552       H  0.27979420  0.57589203  0.88357655     0.14900
C1553       C  0.05261688  0.65516073  0.11496004    -0.05100
C1554       C  0.06624744  0.67520313  0.11385492    -0.05000
C1555       C  0.08290042  0.67784040  0.09672932    -0.23200
C1556       C  0.08644627  0.66028089  0.08077069     0.19000
C1557       C  0.07206061  0.64056478  0.08119598     0.16200
C1558       C  0.05500200  0.63837976  0.09792984    -0.18200
C1559       C  0.07585705  0.62262820  0.06580891    -0.20000
C1560       C  0.09471446  0.62347963  0.05119610    -0.12600
C1561       C  0.10964067  0.64254054  0.05129236     0.04100
C1562       C  0.10493630  0.66138993  0.06534604    -0.24700
H1563       H  0.06454626  0.68852465  0.12664981     0.09100
H1564       H  0.09366393  0.69311608  0.09661249     0.12800
H1565       H  0.04453877  0.62288861  0.09848572     0.12700
H1566       H  0.06491491  0.60747319  0.06584645     0.12400
H1567       H  0.09801538  0.60894091  0.04015896     0.13000
H1568       H  0.11653016  0.67606361  0.06543503     0.14900
C1569       C  0.20174865  0.38689146  0.08374800    -0.05100
C1570       C  0.19017858  0.40574025  0.09316317    -0.05000
C1571       C  0.20133391  0.41995284  0.10886472    -0.23200
C1572       C  0.22409678  0.41540049  0.11510459     0.19000
C1573       C  0.23447332  0.39459167  0.10836642     0.16200
C1574       C  0.22294170  0.38013766  0.09304682    -0.18200
C1575       C  0.25725220  0.39003572  0.11467450    -0.20000
C1576       C  0.27053137  0.40722874  0.12481549    -0.12600
C1577       C  0.26100228  0.42892568  0.12874838     0.04100
C1578       C  0.23744098  0.43240303  0.12552690    -0.24700
H1579       H  0.17353039  0.41094341  0.08661905     0.09100
H1580       H  0.19298257  0.43556873  0.11434746     0.12800
H1581       H  0.23165397  0.36523704  0.08626670     0.12700
H1582       H  0.26531642  0.37400637  0.11000500     0.12400
H1583       H  0.28868306  0.40422841  0.12765834     0.13000
H1584       H  0.23002669  0.44904488  0.12913608     0.14900
C1585       C  0.24886486  0.37517610  0.95979646    -0.05100
C1586       C  0.26765399  0.38724335  0.96902637    -0.05000
C1587       C  0.28244731  0.39925658  0.95436135    -0.23200
C1588       C  0.27810831  0.39951123  0.93057539     0.19000
C1589       C  0.26107781  0.38489621  0.92111008     0.16200
C1590       C  0.24706810  0.37211580  0.93588639    -0.18200
C1591       C  0.25629362  0.38565430  0.89737155    -0.20000
C1592       C  0.26625511  0.40279203  0.88363918    -0.12600
C1593       C  0.28131271  0.41869796  0.89363741     0.04100
C1594       C  0.28843732  0.41608382  0.91656876    -0.24700
H1595       H  0.26945775  0.38942663  0.98746857     0.09100
H1596       H  0.29572264  0.41012694  0.96174485     0.12800
H1597       H  0.23283323  0.36227074  0.92880409     0.12700
H1598       H  0.24342345  0.37437840  0.88989329     0.12400
H1599       H  0.26093470  0.40469549  0.86582017     0.13000
H1600       H  0.30034456  0.42843823  0.92401464     0.14900
C1601       C  0.10425703  0.33988244  0.04958193    -0.05100
C1602       C  0.10536148  0.32215577  0.06610573    -0.05000
C1603       C  0.08982205  0.32147247  0.08450147    -0.23200
C1604       C  0.07299115  0.33853020  0.08661010     0.19000
C1605       C  0.07078059  0.35542514  0.06914071     0.16200
C1606       C  0.08625042  0.35584891  0.05068465    -0.18200
C1607       C  0.05403352  0.37248441  0.07109724    -0.20000
C1608       C  0.04043444  0.37362583  0.09081348    -0.12600
C1609       C  0.04322575  0.35767373  0.10893343     0.04100
C1610       C  0.05911264  0.33968134  0.10635580    -0.24700
H1611       H  0.11919081  0.30980176  0.06570813     0.09100
H1612       H  0.09167823  0.30827645  0.09764599     0.12800
H1613       H  0.08520349  0.36954867  0.03794336     0.12700
H1614       H  0.05200311  0.38544857  0.05774297     0.12400
H1615       H  0.02817413  0.38746832  0.09213413     0.13000
H1616       H  0.06134657  0.32711194  0.12005531     0.14900
C1617       C  0.16032552  0.53930481  0.00207836    -0.05100
C1618       C  0.15312034  0.52883917  0.02286768    -0.05000
C1619       C  0.15159458  0.50476597  0.02531423    -0.23200
C1620       C  0.15769082  0.49013100  0.00719466     0.19000
C1621       C  0.16503267  0.50015322  0.98618108     0.16200
C1622       C  0.16601492  0.52458550  0.98360646    -0.18200
C1623       C  0.17162173  0.48548015  0.96825865    -0.20000
C1624       C  0.17113860  0.46138305  0.97108640    -0.12600
C1625       C  0.16383532  0.45092309  0.99185657     0.04100
C1626       C  0.15694518  0.46572761  0.00986386    -0.24700
H1627       H  0.14855072  0.53938955  0.03742023     0.09100
H1628       H  0.14592070  0.49757620  0.04162152     0.12800
H1629       H  0.17183723  0.53208924  0.96748931     0.12700
H1630       H  0.17743420  0.49266129  0.95199828     0.12400
H1631       H  0.17665698  0.45086351  0.95685908     0.13000
H1632       H  0.15142153  0.45831460  0.02612750     0.14900
C1633       C  0.44124073  0.38045810  0.84551315    -0.05100
C1634       C  0.42061157  0.37300321  0.83523484    -0.05000
C1635       C  0.40206426  0.38786529  0.83288932    -0.23200
C1636       C  0.40383980  0.41049552  0.84069552     0.19000
C1637       C  0.42485030  0.41852861  0.85012780     0.16200
C1638       C  0.44346147  0.40345998  0.85244994    -0.18200
C1639       C  0.42651757  0.44117895  0.85801093    -0.20000
C1640       C  0.40714906  0.45520537  0.85793923    -0.12600
C1641       C  0.38592317  0.44691302  0.84967211     0.04100
C1642       C  0.38460575  0.42483369  0.84024640    -0.24700
H1643       H  0.41846289  0.35534933  0.82980043     0.09100
H1644       H  0.38611058  0.38144644  0.82559777     0.12800
H1645       H  0.45936200  0.40941212  0.86026327     0.12700
H1646       H  0.44251954  0.44773070  0.86507201     0.12400
H1647       H  0.40858034  0.47230974  0.86507080     0.13000
H1648       H  0.36828372  0.41827382  0.83392846     0.14900
C1649       C  0.38244643  0.44108518  0.15451362    -0.05100
C1650       C  0.38083885  0.42514721  0.17284656    -0.05000
C1651       C  0.39810826  0.40898218  0.17665852    -0.23200
C1652       C  0.41725232  0.40836451  0.16214119     0.19000
C1653       C  0.41952413  0.42502237  0.14435640     0.16200
C1654       C  0.40225458  0.44135869  0.14079739    -0.18200
C1655       C  0.43843585  0.42431794  0.12958995    -0.20000
C1656       C  0.45399805  0.40630172  0.13128192    -0.12600
C1657       C  0.45119986  0.38894729  0.14803867     0.04100
C1658       C  0.43339867  0.39058374  0.16414909    -0.24700
H1659       H  0.36587930  0.42468961  0.18388694     0.09100
H1660       H  0.39608550  0.39646588  0.19044340     0.12800
H1661       H  0.40384528  0.45366647  0.12675570     0.12700
H1662       H  0.44054628  0.43701311  0.11598014     0.12400
H1663       H  0.46769717  0.40529723  0.11874206     0.13000
H1664       H  0.43101936  0.37706696  0.17690851     0.14900
C1665       C  0.50620944  0.32756841  0.04248594    -0.05100
C1666       C  0.52413223  0.31450206  0.03303494    -0.05000
C1667       C  0.52689732  0.31242009  0.00906984    -0.23200
C1668       C  0.51218252  0.32382009  0.99355591     0.19000
C1669       C  0.49444791  0.33758759  0.00250774     0.16200
C1670       C  0.49125493  0.33903858  0.02685101    -0.18200
C1671       C  0.48035411  0.34970469  0.98685511    -0.20000
C1672       C  0.48374231  0.34820063  0.96283075    -0.12600
C1673       C  0.50087080  0.33401920  0.95357846     0.04100
C1674       C  0.51496282  0.32172147  0.96929402    -0.24700
H1675       H  0.53588484  0.30535447  0.04429023     0.09100
H1676       H  0.54071504  0.30187944  0.00265740     0.12800
H1677       H  0.47740008  0.34932825  0.03358343     0.12700
H1678       H  0.46668581  0.36047298  0.99319787     0.12400
H1679       H  0.47246626  0.35769938  0.95138108     0.13000
H1680       H  0.52831164  0.31073355  0.96263188     0.14900
C1681       C  0.37865079  0.21669975  0.07596761    -0.05100
C1682       C  0.39029599  0.20552928  0.09410059    -0.05000
C1683       C  0.40155188  0.21836122  0.11090129    -0.23200
C1684       C  0.40159265  0.24236382  0.10930984     0.19000
C1685       C  0.38717306  0.25351136  0.09310424     0.16200
C1686       C  0.37512384  0.24047411  0.07695034    -0.18200
C1687       C  0.38757954  0.27749223  0.09117438    -0.20000
C1688       C  0.40476525  0.28994911  0.10234376    -0.12600
C1689       C  0.42123504  0.27847137  0.11588457     0.04100
C1690       C  0.41808131  0.25512157  0.12124295    -0.24700
H1691       H  0.39254202  0.18706438  0.09414771     0.09100
H1692       H  0.41211764  0.20957397  0.12357499     0.12800
H1693       H  0.36551942  0.24912713  0.06341922     0.12700
H1694       H  0.37626935  0.28632341  0.07920500     0.12400
H1695       H  0.40641538  0.30815199  0.09860242     0.13000
H1696       H  0.43031157  0.24628704  0.13227371     0.14900
C1697       C  0.44397474  0.26378345  0.88487168    -0.05100
C1698       C  0.44662575  0.23997577  0.88360385    -0.05000
C1699       C  0.43171490  0.22550921  0.89558238    -0.23200
C1700       C  0.41480238  0.23488467  0.90975812     0.19000
C1701       C  0.41151548  0.25890077  0.91044453     0.16200
C1702       C  0.42573575  0.27324412  0.89725514    -0.18200
C1703       C  0.39544947  0.26814548  0.92574203    -0.20000
C1704       C  0.38410221  0.25379620  0.94153077    -0.12600
C1705       C  0.38814116  0.23003921  0.94151064     0.04100
C1706       C  0.40256107  0.22067040  0.92469509    -0.24700
H1707       H  0.46072025  0.23267688  0.87402470     0.09100
H1708       H  0.43438546  0.20710565  0.89498373     0.12800
H1709       H  0.42406121  0.29176322  0.89836146     0.12700
H1710       H  0.39271856  0.28653151  0.92643376     0.12400
H1711       H  0.37285930  0.26131356  0.95419935     0.13000
H1712       H  0.40585158  0.20235132  0.92439640     0.14900
C1713       C  0.22188827  0.28108125  0.01519550    -0.05100
C1714       C  0.23741505  0.28087899  0.03392758    -0.05000
C1715       C  0.25522595  0.26487395  0.03557549    -0.23200
C1716       C  0.25832408  0.24831625  0.01849213     0.19000
C1717       C  0.24233514  0.24705427  0.00011188     0.16200
C1718       C  0.22410137  0.26346094  0.99850935    -0.18200
C1719       C  0.24556193  0.22988968  0.98337719    -0.20000
C1720       C  0.26463513  0.21489759  0.98447089    -0.12600
C1721       C  0.28128226  0.21687818  0.00207079     0.04100
C1722       C  0.27763146  0.23356144  0.01920688    -0.24700
H1723       H  0.23630075  0.29387974  0.04713338     0.09100
H1724       H  0.26709024  0.26595358  0.04997755     0.12800
H1725       H  0.21257382  0.26324468  0.98380563     0.12700
H1726       H  0.23358092  0.22834465  0.96912928     0.12400
H1727       H  0.26690643  0.20240264  0.97095411     0.13000
H1728       H  0.29015144  0.23535294  0.03297992     0.14900
C1729       C  0.60893394  0.22365936  0.05533457    -0.05100
C1730       C  0.61527723  0.24684527  0.05713759    -0.05000
C1731       C  0.60462899  0.26068191  0.07333702    -0.23200
C1732       C  0.58701195  0.25155417  0.08714182     0.19000
C1733       C  0.58122816  0.22798990  0.08594117     0.16200
C1734       C  0.59272404  0.21408225  0.07052496    -0.18200
C1735       C  0.56281274  0.21908849  0.09877316    -0.20000
C1736       C  0.54895466  0.23386999  0.11121759    -0.12600
C1737       C  0.55394422  0.25747671  0.11149642     0.04100
C1738       C  0.57378601  0.26598343  0.10058814    -0.24700
H1739       H  0.62793441  0.25434892  0.04563459     0.09100
H1740       H  0.60920053  0.27874963  0.07412566     0.12800
H1741       H  0.58763061  0.19617700  0.06907233     0.12700
H1742       H  0.55826201  0.20101370  0.09798474     0.12400
H1743       H  0.53380401  0.22703830  0.11970963     0.13000
H1744       H  0.57773002  0.28422976  0.10067087     0.14900
C1745       C  0.61719213  0.21717029  0.91989608    -0.05100
C1746       C  0.60598187  0.20602968  0.90156195    -0.05000
C1747       C  0.59543529  0.21883579  0.88420833    -0.23200
C1748       C  0.59577230  0.24283599  0.88527000     0.19000
C1749       C  0.60951361  0.25406445  0.90199579     0.16200
C1750       C  0.62065087  0.24104526  0.91892743    -0.18200
C1751       C  0.60946060  0.27810573  0.90332065    -0.20000
C1752       C  0.59351073  0.29059638  0.89043953    -0.12600
C1753       C  0.57813058  0.27909784  0.87582649     0.04100
C1754       C  0.58039304  0.25558758  0.87193570    -0.24700
H1755       H  0.60369176  0.18753918  0.90159560     0.09100
H1756       H  0.58533843  0.21002042  0.87121660     0.12800
H1757       H  0.62983441  0.24970090  0.93269113     0.12700
H1758       H  0.62006461  0.28697635  0.91586400     0.12400
H1759       H  0.59169708  0.30883803  0.89351804     0.13000
H1760       H  0.56826165  0.24689260  0.86067346     0.14900
C1761       C  0.54299726  0.15472341  0.99031680    -0.05100
C1762       C  0.53159982  0.15767136  0.96898582    -0.05000
C1763       C  0.50739653  0.15841089  0.96737767    -0.23200
C1764       C  0.49343524  0.15603564  0.98702503     0.19000
C1765       C  0.50427483  0.15258041  0.00858716     0.16200
C1766       C  0.52886019  0.15207429  0.01017131    -0.18200
C1767       C  0.49023139  0.14995417  0.02818147    -0.20000
C1768       C  0.46600707  0.15113200  0.02655952    -0.12600
C1769       C  0.45472041  0.15501999  0.00529681     0.04100
C1770       C  0.46891691  0.15727852  0.98548206    -0.24700
H1771       H  0.54148717  0.15990541  0.95335088     0.09100
H1772       H  0.49956806  0.16104270  0.95060151     0.12800
H1773       H  0.53693999  0.14978782  0.02687823     0.12700
H1774       H  0.49801510  0.14715729  0.04495184     0.12400
H1775       H  0.45605546  0.14923095  0.04219282     0.13000
H1776       H  0.46093523  0.16025468  0.96883385     0.14900
C1777       C  0.43849887  0.83946717  0.38003982    -0.05100
C1778       C  0.41970591  0.82442735  0.37686354    -0.05000
C1779       C  0.40197599  0.82325342  0.39303378    -0.23200
C1780       C  0.40275496  0.83704687  0.41270993     0.19000
C1781       C  0.42204603  0.85151403  0.41645614     0.16200
C1782       C  0.43974100  0.85262082  0.40016365    -0.18200
C1783       C  0.42303230  0.86522717  0.43609917    -0.20000
C1784       C  0.40463749  0.86546852  0.45135963    -0.12600
C1785       C  0.38485228  0.85195488  0.44736993     0.04100
C1786       C  0.38429634  0.83722712  0.42829170    -0.24700
H1787       H  0.41831626  0.81408587  0.36147898     0.09100
H1788       H  0.38741957  0.81197637  0.38987106     0.12800
H1789       H  0.45421684  0.86413185  0.40291060     0.12700
H1790       H  0.43778028  0.87622754  0.43936934     0.12400
H1791       H  0.40575311  0.87671076  0.46611564     0.13000
H1792       H  0.36922272  0.82665738  0.42507077     0.14900
C1793       C  0.44785605  0.13691345  0.38694380    -0.05100
C1794       C  0.45114152  0.12101527  0.40506237    -0.05000
C1795       C  0.43717282  0.12129773  0.42441529    -0.23200
C1796       C  0.41958160  0.13739932  0.42596197     0.19000
C1797       C  0.41684514  0.15424231  0.40844966     0.16200
C1798       C  0.43117465  0.15404138  0.38909309    -0.18200
C1799       C  0.39913605  0.17028995  0.41011622    -0.20000
C1800       C  0.38350291  0.16879510  0.42823736    -0.12600
C1801       C  0.38541599  0.15127009  0.44499793     0.04100
C1802       C  0.40401599  0.13616181  0.44419036    -0.24700
H1803       H  0.46417762  0.10786593  0.40404709     0.09100
H1804       H  0.43963284  0.10842310  0.43778643     0.12800
H1805       H  0.42859435  0.16643833  0.37529147     0.12700
H1806       H  0.39685268  0.18342470  0.39697495     0.12400
H1807       H  0.36934877  0.18077726  0.42854120     0.13000
H1808       H  0.40578774  0.12272814  0.45712663     0.14900
C1809       C  0.49456942  0.27028570  0.21302976    -0.05100
C1810       C  0.48893847  0.27857910  0.23503483    -0.05000
C1811       C  0.48788317  0.26360937  0.25437969    -0.23200
C1812       C  0.49272912  0.23995805  0.25234536     0.19000
C1813       C  0.49904621  0.23163543  0.23047593     0.16200
C1814       C  0.49974453  0.24662331  0.21118246    -0.18200
C1815       C  0.50458052  0.20834532  0.22812105    -0.20000
C1816       C  0.50394159  0.19337360  0.24711284    -0.12600
C1817       C  0.49727014  0.20093792  0.26901896     0.04100
C1818       C  0.49148976  0.22444984  0.27155039    -0.24700
H1819       H  0.48487006  0.29655779  0.23722000     0.09100
H1820       H  0.48317365  0.27055508  0.27095173     0.12800
H1821       H  0.50438206  0.23971024  0.19455799     0.12700
H1822       H  0.50953571  0.20165191  0.21150472     0.12400
H1823       H  0.50841235  0.17551952  0.24458976     0.13000
H1824       H  0.48646321  0.23067543  0.28832211     0.14900
C1825       C  0.49520939  0.03164405  0.32373417    -0.05100
C1826       C  0.49878160  0.02153251  0.34566795    -0.05000
C1827       C  0.49954043  0.99746613  0.34879871    -0.23200
C1828       C  0.49675583  0.98242266  0.33011261     0.19000
C1829       C  0.49311238  0.99210105  0.30797418     0.16200
C1830       C  0.49235237  0.01647219  0.30488750    -0.18200
C1831       C  0.49035891  0.97716764  0.28925408    -0.20000
C1832       C  0.49132882  0.95315762  0.29227007    -0.12600
C1833       C  0.49501314  0.94289832  0.31413685     0.04100
C1834       C  0.49762014  0.95798403  0.33312774    -0.24700
H1835       H  0.50109688  0.03231072  0.36063467     0.09100
H1836       H  0.50237781  0.99061177  0.36597972     0.12800
H1837       H  0.48958920  0.02357741  0.28779126     0.12700
H1838       H  0.48749613  0.98407100  0.27209230     0.12400
H1839       H  0.48911409  0.94252255  0.27718546     0.13000
H1840       H  0.50047038  0.95079159  0.35016903     0.14900
C1841       C  0.42151221  0.11256930  0.27491791    -0.05100
C1842       C  0.40617186  0.10124588  0.28979848    -0.05000
C1843       C  0.38798275  0.08848511  0.28080066    -0.23200
C1844       C  0.38509279  0.08722614  0.25690269     0.19000
C1845       C  0.39863985  0.10129953  0.24214245     0.16200
C1846       C  0.41695796  0.11389624  0.25132247    -0.18200
C1847       C  0.39542873  0.10033223  0.21826264    -0.20000
C1848       C  0.38140225  0.08324947  0.20899568    -0.12600
C1849       C  0.37074466  0.06715107  0.22360216     0.04100
C1850       C  0.37110656  0.07014631  0.24744304    -0.24700
H1851       H  0.40957678  0.10043408  0.30816268     0.09100
H1852       H  0.37746639  0.07816389  0.29233439     0.12800
H1853       H  0.42881218  0.12296753  0.24002783     0.12700
H1854       H  0.40531433  0.11130584  0.20676817     0.12400
H1855       H  0.38104527  0.08098812  0.19047703     0.13000
H1856       H  0.36266132  0.05763811  0.25856083     0.14900
C1857       C  0.38070686  0.93086532  0.24006476    -0.05100
C1858       C  0.38323559  0.93346676  0.26389953    -0.05000
C1859       C  0.39349701  0.91613900  0.27694460    -0.23200
C1860       C  0.40234465  0.89675989  0.26595472     0.19000
C1861       C  0.39918408  0.89382425  0.24197213     0.16200
C1862       C  0.38751413  0.91052780  0.22936290    -0.18200
C1863       C  0.40981199  0.87556051  0.23062454    -0.20000
C1864       C  0.42542239  0.86180320  0.24255450    -0.12600
C1865       C  0.42912396  0.86535014  0.26608602     0.04100
C1866       C  0.41646760  0.88168835  0.27804807    -0.24700
H1867       H  0.37782299  0.94910039  0.27224902     0.09100
H1868       H  0.39595472  0.91862621  0.29528241     0.12800
H1869       H  0.38577008  0.90875220  0.21083542     0.12700
H1870       H  0.40763065  0.87323352  0.21223180     0.12400
H1871       H  0.43546651  0.84931433  0.23328408     0.13000
H1872       H  0.41996379  0.88460601  0.29618944     0.14900
C1873       C  0.33789980  0.10648295  0.05394281    -0.05100
C1874       C  0.31832016  0.10647540  0.06802426    -0.05000
C1875       C  0.31578775  0.08983696  0.08551597    -0.23200
C1876       C  0.33279779  0.07308325  0.08899445     0.19000
C1877       C  0.35160839  0.07227917  0.07367702     0.16200
C1878       C  0.35390974  0.08879025  0.05628456    -0.18200
C1879       C  0.36861604  0.05573431  0.07663681    -0.20000
C1880       C  0.36782982  0.04081124  0.09537328    -0.12600
C1881       C  0.35000568  0.04205431  0.11164358     0.04100
C1882       C  0.33203595  0.05782030  0.10797286    -0.24700
H1883       H  0.30576442  0.12005416  0.06640382     0.09100
H1884       H  0.30109263  0.09065818  0.09687809     0.12800
H1885       H  0.36889873  0.08858696  0.04521825     0.12700
H1886       H  0.38299740  0.05482028  0.06486878     0.12400
H1887       H  0.38173448  0.02867676  0.09741903     0.13000
H1888       H  0.31810254  0.05885422  0.12025113     0.14900
C1889       C  0.28246113  0.98738036  0.22516668    -0.05100
C1890       C  0.27930897  0.96664183  0.23757938    -0.05000
C1891       C  0.26327392  0.96479249  0.25540232    -0.23200
C1892       C  0.24960936  0.98355656  0.26129924     0.19000
C1893       C  0.25154809  0.00422175  0.24844437     0.16200
C1894       C  0.26808028  0.00610924  0.23053656    -0.18200
C1895       C  0.23729378  0.02274677  0.25423025    -0.20000
C1896       C  0.22199416  0.02105870  0.27294232    -0.12600
C1897       C  0.22082623  0.00096153  0.28655675     0.04100
C1898       C  0.23453081  0.98213011  0.28027565    -0.24700
H1899       H  0.28988496  0.95184064  0.23408010     0.09100
H1900       H  0.26190754  0.94873580  0.26491188     0.12800
H1901       H  0.27011486  0.02222720  0.22126230     0.12700
H1902       H  0.23831389  0.03873820  0.24458622     0.12400
H1903       H  0.21184235  0.03588397  0.27743092     0.13000
H1904       H  0.23381871  0.96646433  0.29050526     0.14900
C1905       C  0.61091756  0.06235905  0.21379206    -0.05100
C1906       C  0.59976746  0.07947018  0.20069355    -0.05000
C1907       C  0.58576006  0.09536138  0.21140955    -0.23200
C1908       C  0.58289737  0.09429595  0.23526080     0.19000
C1909       C  0.59656836  0.07919832  0.24873134     0.16200
C1910       C  0.61085756  0.06353804  0.23786554    -0.18200
C1911       C  0.59396042  0.07838913  0.27266916    -0.20000
C1912       C  0.57648368  0.09082781  0.28288283    -0.12600
C1913       C  0.56152115  0.10392991  0.26918481     0.04100
C1914       C  0.56528456  0.10654777  0.24562430    -0.24700
H1915       H  0.60008310  0.07928841  0.18203517     0.09100
H1916       H  0.57585338  0.10722910  0.20092839     0.12800
H1917       H  0.61985311  0.05073002  0.24807966     0.12700
H1918       H  0.60446386  0.06715080  0.28325874     0.12400
H1919       H  0.57367864  0.08904958  0.30126601     0.13000
H1920       H  0.55378060  0.11706138  0.23530683     0.14900
C1921       C  0.61054655  0.92714016  0.22890583    -0.05100
C1922       C  0.61257369  0.92962248  0.25286434    -0.05000
C1923       C  0.60372157  0.91275980  0.26760658    -0.23200
C1924       C  0.59218400  0.89364395  0.25849137     0.19000
C1925       C  0.59129958  0.89041100  0.23438139     0.16200
C1926       C  0.60109364  0.90684410  0.21981229    -0.18200
C1927       C  0.57858992  0.87209511  0.22512996    -0.20000
C1928       C  0.56465611  0.85879116  0.23948840    -0.12600
C1929       C  0.56441961  0.86298233  0.26319197     0.04100
C1930       C  0.57938423  0.87917981  0.27286381    -0.24700
H1931       H  0.62015837  0.94497709  0.26019868     0.09100
H1932       H  0.60454944  0.91542053  0.28605514     0.12800
H1933       H  0.59957491  0.90465341  0.20132612     0.12700
H1934       H  0.57777173  0.86944129  0.20667858     0.12400
H1935       H  0.55283436  0.84645154  0.23197676     0.13000
H1936       H  0.57862933  0.88260534  0.29120357     0.14900
C1937       C  0.64514662  0.03998461  0.10199995    -0.05100
C1938       C  0.62751386  0.03878205  0.08542629    -0.05000
C1939       C  0.62624159  0.05491056  0.06767780    -0.23200
C1940       C  0.64247002  0.07268214  0.06632757     0.19000
C1941       C  0.66121529  0.07326629  0.08193744     0.16200
C1942       C  0.66260784  0.05664327  0.09963050    -0.18200
C1943       C  0.67745056  0.09118054  0.08024165    -0.20000
C1944       C  0.67449933  0.10884164  0.06395559    -0.12600
C1945       C  0.65515882  0.10887551  0.04941161     0.04100
C1946       C  0.63957171  0.09045655  0.05028134    -0.24700
H1947       H  0.61406513  0.02587034  0.08680376     0.09100
H1948       H  0.61197065  0.05408188  0.05564046     0.12800
H1949       H  0.67621349  0.05767872  0.11240875     0.12700
H1950       H  0.69200541  0.09189404  0.09192707     0.12400
H1951       H  0.68675232  0.12293390  0.06337181     0.13000
H1952       H  0.62480619  0.09028997  0.03879819     0.14900
C1953       C  0.45340903  0.99496132  0.17588740    -0.05100
C1954       C  0.46537732  0.01231332  0.18785026    -0.05000
C1955       C  0.48944052  0.01451090  0.18648331    -0.23200
C1956       C  0.50253016  0.99897151  0.17364018     0.19000
C1957       C  0.49102164  0.98096052  0.16202584     0.16200
C1958       C  0.46654022  0.97932199  0.16279321    -0.18200
C1959       C  0.50431555  0.96480827  0.15010534    -0.20000
C1960       C  0.52852752  0.96644195  0.14970518    -0.12600
C1961       C  0.54028827  0.98463150  0.16062882     0.04100
C1962       C  0.52690532  0.00096621  0.17250703    -0.24700
H1963       H  0.45597779  0.02459316  0.19802912     0.09100
H1964       H  0.49785847  0.02834936  0.19570753     0.12800
H1965       H  0.45778672  0.96562418  0.15366120     0.12700
H1966       H  0.49598524  0.95068825  0.14124041     0.12400
H1967       H  0.53810495  0.95351243  0.14055972     0.13000
H1968       H  0.53550397  0.01490910  0.18141875     0.14900
C1969       C  0.60638210  0.85130372  0.45092299    -0.05100
C1970       C  0.58889428  0.86775109  0.45225672    -0.05000
C1971       C  0.57090779  0.86794955  0.43633016    -0.23200
C1972       C  0.57035237  0.85198492  0.41842144     0.19000
C1973       C  0.58734630  0.83474378  0.41737983     0.16200
C1974       C  0.60513750  0.83426883  0.43392154    -0.18200
C1975       C  0.58686164  0.81907995  0.39913394    -0.20000
C1976       C  0.57028689  0.82104257  0.38167715    -0.12600
C1977       C  0.55381021  0.83864680  0.38217335     0.04100
C1978       C  0.55366494  0.85369811  0.40099439    -0.24700
H1979       H  0.58965937  0.88107252  0.46518729     0.09100
H1980       H  0.55799565  0.88122701  0.43743276     0.12800
H1981       H  0.61882151  0.82180328  0.43255854     0.12700
H1982       H  0.59968421  0.80572257  0.39800701     0.12400
H1983       H  0.57076393  0.80910692  0.36746692     0.13000
H1984       H  0.54102393  0.86727251  0.40174687     0.14900
C1985       C  0.61699362  0.15641379  0.43468729    -0.05100
C1986       C  0.61805317  0.17319625  0.41714887    -0.05000
C1987       C  0.60114865  0.17386092  0.39989474    -0.23200
C1988       C  0.58320504  0.15759028  0.39988629     0.19000
C1989       C  0.58151061  0.14159436  0.41827233     0.16200
C1990       C  0.59806818  0.14141153  0.43563934    -0.18200
C1991       C  0.56396748  0.12511944  0.41850087    -0.20000
C1992       C  0.54882668  0.12362901  0.40005912    -0.12600
C1993       C  0.55078900  0.13871978  0.38109671     0.04100
C1994       C  0.56757506  0.15623593  0.38141606    -0.24700
H1995       H  0.63241362  0.18510280  0.41619646     0.09100
H1996       H  0.60265071  0.18641266  0.38607996     0.12800
H1997       H  0.59679574  0.12863342  0.44929725     0.12700
H1998       H  0.56242467  0.11285253  0.43257976     0.12400
H1999       H  0.53581654  0.11022468  0.40048492     0.13000
H2000       H  0.56914903  0.16802191  0.36693831     0.14900
C2001       C  0.72463403  0.21910514  0.49328310    -0.05100
C2002       C  0.73019258  0.22964299  0.47202608    -0.05000
C2003       C  0.74749127  0.24647521  0.47036490    -0.23200
C2004       C  0.75985812  0.25341486  0.48993026     0.19000
C2005       C  0.75401685  0.24377515  0.51160488     0.16200
C2006       C  0.73649813  0.22669400  0.51319026    -0.18200
C2007       C  0.76620962  0.25105498  0.53120724    -0.20000
C2008       C  0.78418258  0.26722542  0.52930927    -0.12600
C2009       C  0.79077284  0.27642018  0.50774106     0.04100
C2010       C  0.77823069  0.26946968  0.48807972    -0.24700
H2011       H  0.72152762  0.22441941  0.45635002     0.09100
H2012       H  0.75150471  0.25375051  0.45359978     0.12800
H2013       H  0.73265490  0.21884801  0.52974310     0.12700
H2014       H  0.76204588  0.24402242  0.54803596     0.12400
H2015       H  0.79341016  0.27206521  0.54479337     0.13000
H2016       H  0.78286947  0.27638787  0.47132376     0.14900
C2017       C  0.67200681  0.04731282  0.48793423    -0.05100
C2018       C  0.65122659  0.03735997  0.48018017    -0.05000
C2019       C  0.64787877  0.01334670  0.48011389    -0.23200
C2020       C  0.66502463  0.99837673  0.48826644     0.19000
C2021       C  0.68583009  0.00796649  0.49657750     0.16200
C2022       C  0.68935379  0.03222353  0.49602561    -0.18200
C2023       C  0.70264859  0.99308086  0.50553693    -0.20000
C2024       C  0.69896312  0.96914140  0.50629335    -0.12600
C2025       C  0.67862092  0.95912825  0.49757123     0.04100
C2026       C  0.66169896  0.97407111  0.48839550    -0.24700
H2027       H  0.63747508  0.04821818  0.47391001     0.09100
H2028       H  0.63169979  0.00648274  0.47380752     0.12800
H2029       H  0.70540721  0.03935560  0.50237219     0.12700
H2030       H  0.71870640  0.99997184  0.51212207     0.12400
H2031       H  0.71239176  0.95830887  0.51330247     0.13000
H2032       H  0.64583680  0.96683388  0.48169835     0.14900
C2033       C  0.76116819  0.06814560  0.36959095    -0.05100
C2034       C  0.73727769  0.06464964  0.36960173    -0.05000
C2035       C  0.72300467  0.08066489  0.37997932    -0.23200
C2036       C  0.73270615  0.09970976  0.39113326     0.19000
C2037       C  0.75646019  0.10450575  0.38896396     0.16200
C2038       C  0.77032875  0.08919800  0.37717686    -0.18200
C2039       C  0.76651709  0.12263610  0.40132104    -0.20000
C2040       C  0.75380801  0.13375493  0.41813670    -0.12600
C2041       C  0.73076995  0.12769629  0.42148228     0.04100
C2042       C  0.71976547  0.11212273  0.40681911    -0.24700
H2043       H  0.72982513  0.04877748  0.36330175     0.09100
H2044       H  0.70477395  0.07695680  0.38129787     0.12800
H2045       H  0.78871816  0.09233604  0.37666786     0.12700
H2046       H  0.78468354  0.12654386  0.39971342     0.12400
H2047       H  0.76223945  0.14593706  0.42944776     0.13000
H2048       H  0.70189510  0.10753311  0.40976111     0.14900
C2049       C  0.77344901  0.93279730  0.37503218    -0.05100
C2050       C  0.78500362  0.91375957  0.38447070    -0.05000
C2051       C  0.77263807  0.89585013  0.39463330    -0.23200
C2052       C  0.74868378  0.89712399  0.39586965     0.19000
C2053       C  0.73690968  0.91485299  0.38402379     0.16200
C2054       C  0.74942036  0.93230859  0.37311106    -0.18200
C2055       C  0.71299063  0.91639064  0.38568879    -0.20000
C2056       C  0.70135298  0.90280897  0.40175179    -0.12600
C2057       C  0.71357209  0.88735768  0.41588293     0.04100
C2058       C  0.73670593  0.88287975  0.41114449    -0.24700
H2059       H  0.80359115  0.91343860  0.38548655     0.09100
H2060       H  0.78187553  0.88213998  0.40328865     0.12800
H2061       H  0.74038207  0.94668178  0.36536461     0.12700
H2062       H  0.70365513  0.92957936  0.37634177     0.12400
H2063       H  0.68328785  0.90605712  0.40463461     0.13000
H2064       H  0.74611515  0.87053137  0.42155090     0.14900
C2065       C  0.88014602  0.06629311  0.34063664    -0.05100
C2066       C  0.89355581  0.06847639  0.32061696    -0.05000
C2067       C  0.91126367  0.08500816  0.31937519    -0.23200
C2068       C  0.91577784  0.09957402  0.33812733     0.19000
C2069       C  0.90221635  0.09739008  0.35816323     0.16200
C2070       C  0.88469467  0.08096447  0.35925315    -0.18200
C2071       C  0.90629452  0.11162129  0.37702176    -0.20000
C2072       C  0.92365295  0.12806566  0.37615709    -0.12600
C2073       C  0.93745307  0.13067564  0.35643888     0.04100
C2074       C  0.93349278  0.11624537  0.33737767    -0.24700
H2075       H  0.89045775  0.05736409  0.30603534     0.09100
H2076       H  0.92142899  0.08636192  0.30381784     0.12800
H2077       H  0.87459275  0.07964490  0.37487598     0.12700
H2078       H  0.89603432  0.11004195  0.39251359     0.12400
H2079       H  0.92632599  0.13868959  0.39118653     0.13000
H2080       H  0.94402506  0.11801724  0.32209783     0.14900
C2081       C  0.77767405  0.00000129  0.27499940    -0.05100
C2082       C  0.78117871  0.01540499  0.25648249    -0.05000
C2083       C  0.76555542  0.01627885  0.23772247    -0.23200
C2084       C  0.74612255  0.00161765  0.23689411     0.19000
C2085       C  0.74310916  0.98546360  0.25498881     0.16200
C2086       C  0.75867494  0.98483267  0.27373735    -0.18200
C2087       C  0.72404906  0.97064877  0.25458395    -0.20000
C2088       C  0.70752236  0.97239949  0.23712979    -0.12600
C2089       C  0.70940638  0.98886325  0.21929702     0.04100
C2090       C  0.72924478  0.00321349  0.21895448    -0.24700
H2091       H  0.79537822  0.02752107  0.25702638     0.09100
H2092       H  0.76838000  0.02884415  0.22413764     0.12800
H2093       H  0.75559282  0.97286548  0.28783322     0.12700
H2094       H  0.72152110  0.95805169  0.26821476     0.12400
H2095       H  0.69265074  0.96110346  0.23794362     0.13000
H2096       H  0.73097282  0.01619713  0.20557922     0.14900
C2097       C  0.72682523  0.11678642  0.55962650    -0.05100
C2098       C  0.74768389  0.12465637  0.56864422    -0.05000
C2099       C  0.75863537  0.11194485  0.58582216    -0.23200
C2100       C  0.74913978  0.09088794  0.59310721     0.19000
C2101       C  0.72732945  0.08371288  0.58498477     0.16200
C2102       C  0.71596593  0.09719163  0.56867529    -0.18200
C2103       C  0.71852480  0.06205315  0.59130868    -0.20000
C2104       C  0.73261308  0.04639503  0.60287295    -0.12600
C2105       C  0.75515497  0.05277111  0.60875166     0.04100
C2106       C  0.76237405  0.07569110  0.60597060    -0.24700
H2107       H  0.75593724  0.13991027  0.56163132     0.09100
H2108       H  0.77534986  0.11757348  0.59196744     0.12800
H2109       H  0.69977358  0.09132536  0.56136766     0.12700
H2110       H  0.70170147  0.05648254  0.58541700     0.12400
H2111       H  0.72663734  0.02888024  0.60535129     0.13000
H2112       H  0.77955800  0.08088037  0.61119760     0.14900
C2113       C  0.78653392  0.92141412  0.60656683    -0.05100
C2114       C  0.76610390  0.91279264  0.61610666    -0.05000
C2115       C  0.75378371  0.89564046  0.60475878    -0.23200
C2116       C  0.76120398  0.88806980  0.58317658     0.19000
C2117       C  0.78280208  0.89518204  0.57454006     0.16200
C2118       C  0.79585193  0.91111100  0.58692284    -0.18200
C2119       C  0.78946936  0.88880542  0.55227954    -0.20000
C2120       C  0.77341711  0.87873111  0.53745441    -0.12600
C2121       C  0.75102924  0.87425547  0.54524008     0.04100
C2122       C  0.74596150  0.87646058  0.56876034    -0.24700
H2123       H  0.75895448  0.92036566  0.63146753     0.09100
H2124       H  0.73731853  0.89016530  0.61162512     0.12800
H2125       H  0.81164877  0.91780728  0.57951397     0.12700
H2126       H  0.80610628  0.89388681  0.54554189     0.12400
H2127       H  0.77780516  0.87661067  0.51947990     0.13000
H2128       H  0.72887621  0.87229873  0.57502729     0.14900
C2129       C  0.92886850  0.13595184  0.63670156    -0.05100
C2130       C  0.92000370  0.13209149  0.61450647    -0.05000
C2131       C  0.90277148  0.11572721  0.61085556    -0.23200
C2132       C  0.89446770  0.10245659  0.62929229     0.19000
C2133       C  0.90287627  0.10650473  0.65183450     0.16200
C2134       C  0.91980207  0.12357547  0.65549406    -0.18200
C2135       C  0.89485953  0.09276294  0.67010706    -0.20000
C2136       C  0.87921098  0.07484335  0.66600928    -0.12600
C2137       C  0.87104365  0.07043097  0.64358852     0.04100
C2138       C  0.87850334  0.08468157  0.62536943    -0.24700
H2139       H  0.92684274  0.14147981  0.59982898     0.09100
H2140       H  0.89651831  0.11290637  0.59348205     0.12800
H2141       H  0.92682772  0.12627746  0.67259950     0.12700
H2142       H  0.90106776  0.09554074  0.68749973     0.12400
H2143       H  0.87369309  0.06426394  0.68042108     0.13000
H2144       H  0.87241638  0.08155790  0.60798335     0.14900
C2145       C  0.83488739  0.99777999  0.53646139    -0.05100
C2146       C  0.83722756  0.97606937  0.52607579    -0.05000
C2147       C  0.83700759  0.97361446  0.50194881    -0.23200
C2148       C  0.83459336  0.99281934  0.48729003     0.19000
C2149       C  0.83242298  0.01475970  0.49731589     0.16200
C2150       C  0.83244416  0.01711318  0.52169683    -0.18200
C2151       C  0.83015301  0.03399954  0.48273607    -0.20000
C2152       C  0.82985634  0.03162148  0.45864818    -0.12600
C2153       C  0.83174303  0.00992206  0.44816536     0.04100
C2154       C  0.83420099  0.99048849  0.46286569    -0.24700
H2155       H  0.83890955  0.96076248  0.53667154     0.09100
H2156       H  0.83866308  0.95658339  0.49475160     0.12800
H2157       H  0.83052496  0.03400927  0.52914342     0.12700
H2158       H  0.82851454  0.05101383  0.48997813     0.12400
H2159       H  0.82795516  0.04697176  0.44816023     0.13000
H2160       H  0.83568063  0.97357064  0.45536420     0.14900
C2161       C  0.84447133  0.61921114  0.43617230    -0.05100
C2162       C  0.82273182  0.61074836  0.42959652    -0.05000
C2163       C  0.82082777  0.59346672  0.41290370    -0.23200
C2164       C  0.84064012  0.58442587  0.40264080     0.19000
C2165       C  0.86244360  0.59281616  0.40949078     0.16200
C2166       C  0.86417635  0.60991140  0.42607858    -0.18200
C2167       C  0.88238798  0.58418167  0.39957372    -0.20000
C2168       C  0.88088877  0.56751448  0.38268122    -0.12600
C2169       C  0.85941903  0.55898108  0.37536694     0.04100
C2170       C  0.83922312  0.56734109  0.38560093    -0.24700
H2171       H  0.80727077  0.61763579  0.43713990     0.09100
H2172       H  0.80392254  0.58729642  0.40793562     0.12800
H2173       H  0.88111735  0.61603106  0.43106123     0.12700
H2174       H  0.89920559  0.59043402  0.40477882     0.12400
H2175       H  0.89673108  0.56123909  0.37536964     0.13000
H2176       H  0.82258064  0.56086282  0.38012927     0.14900
C2177       C  0.71734364  0.78407714  0.49435524    -0.05100
C2178       C  0.71459044  0.76875704  0.51308647    -0.05000
C2179       C  0.72969424  0.75003811  0.51635229    -0.23200
C2180       C  0.74786861  0.74605193  0.50087846     0.19000
C2181       C  0.75010288  0.76079608  0.48152007     0.16200
C2182       C  0.73500732  0.77949998  0.47843929    -0.18200
C2183       C  0.76803577  0.75725092  0.46592268    -0.20000
C2184       C  0.78418301  0.73994919  0.46981181    -0.12600
C2185       C  0.78289637  0.72541121  0.48922753     0.04100
C2186       C  0.76433939  0.72831281  0.50468788    -0.24700
H2187       H  0.70147068  0.77189456  0.52583934     0.09100
H2188       H  0.72752176  0.73904712  0.53135085     0.12800
H2189       H  0.73754430  0.79107390  0.46391846     0.12700
H2190       H  0.77003098  0.76837624  0.45098761     0.12400
H2191       H  0.79836042  0.73838492  0.45788041     0.13000
H2192       H  0.76334051  0.71763427  0.52003601     0.14900
C2193       C  0.15367599  0.61176404  0.44510281    -0.05100
C2194       C  0.17506366  0.60837478  0.43458763    -0.05000
C2195       C  0.17778395  0.59058895  0.41870141    -0.23200
C2196       C  0.15914492  0.57607727  0.41330466     0.19000
C2197       C  0.13817111  0.57857954  0.42519908     0.16200
C2198       C  0.13566812  0.59621930  0.44104466    -0.18200
C2199       C  0.11950910  0.56421475  0.42023464    -0.20000
C2200       C  0.12102373  0.54836175  0.40257814    -0.12600
C2201       C  0.14123077  0.54658508  0.38951832     0.04100
C2202       C  0.16060260  0.55994001  0.39550401    -0.24700
H2203       H  0.18920878  0.62016126  0.43769887     0.09100
H2204       H  0.19409333  0.58878839  0.40997658     0.12800
H2205       H  0.11925337  0.59850131  0.44950856     0.12700
H2206       H  0.10341443  0.56585162  0.42940195     0.12400
H2207       H  0.10590526  0.53817758  0.39853920     0.13000
H2208       H  0.17634176  0.55857912  0.38569263     0.14900
C2209       C  0.21337342  0.72208045  0.49778411    -0.05100
C2210       C  0.22890136  0.72049886  0.47935621    -0.05000
C2211       C  0.24758579  0.73594627  0.47726270    -0.23200
C2212       C  0.25144231  0.75318414  0.49376886     0.19000
C2213       C  0.23662198  0.75411829  0.51299690     0.16200
C2214       C  0.21757417  0.73890408  0.51468883    -0.18200
C2215       C  0.24069322  0.77071307  0.52992563    -0.20000
C2216       C  0.25869940  0.78665915  0.52758954    -0.12600
C2217       C  0.27307842  0.78693316  0.50805001     0.04100
C2218       C  0.26939500  0.76979199  0.49119621    -0.24700
H2219       H  0.22588904  0.70803847  0.46589147     0.09100
H2220       H  0.25872965  0.73471544  0.46242205     0.12800
H2221       H  0.20564616  0.74051049  0.52888330     0.12700
H2222       H  0.22967969  0.77162449  0.54490093     0.12400
H2223       H  0.26079653  0.79945390  0.54090233     0.13000
H2224       H  0.28022674  0.76952420  0.47606012     0.14900
C2225       C  0.04020111  0.66840950  0.48516837    -0.05100
C2226       C  0.02951232  0.66674419  0.46336504    -0.05000
C2227       C  0.00535899  0.66613555  0.46104697    -0.23200
C2228       C  0.99097421  0.66709120  0.48046822     0.19000
C2229       C  0.00132445  0.66872151  0.50247056     0.16200
C2230       C  0.02568396  0.66946961  0.50469283    -0.18200
C2231       C  0.98709488  0.66953566  0.52194223    -0.20000
C2232       C  0.96302582  0.66870114  0.51977155    -0.12600
C2233       C  0.95216293  0.66723430  0.49804823     0.04100
C2234       C  0.96652344  0.66649002  0.47833356    -0.24700
H2235       H  0.03987401  0.66595267  0.44793924     0.09100
H2236       H  0.99792085  0.66488032  0.44395437     0.12800
H2237       H  0.03331583  0.67080818  0.52169890     0.12700
H2238       H  0.99460376  0.67082655  0.53900397     0.12400
H2239       H  0.95283487  0.66952741  0.53531145     0.13000
H2240       H  0.95873595  0.66544149  0.46137894     0.14900
C2241       C  0.07591620  0.78832258  0.38330632    -0.05100
C2242       C  0.09209325  0.79973282  0.39728562    -0.05000
C2243       C  0.10962683  0.78747581  0.40798502    -0.23200
C2244       C  0.11088384  0.76371286  0.40500311     0.19000
C2245       C  0.09656669  0.75275986  0.38858745     0.16200
C2246       C  0.07937733  0.76529895  0.37746381    -0.18200
C2247       C  0.09772273  0.72895386  0.38577939    -0.20000
C2248       C  0.10995995  0.71580519  0.40168565    -0.12600
C2249       C  0.12123039  0.72651451  0.42027322     0.04100
C2250       C  0.12380017  0.75044451  0.42032002    -0.24700
H2251       H  0.09009630  0.81769733  0.40154432     0.09100
H2252       H  0.12076860  0.79617852  0.42018205     0.12800
H2253       H  0.06729878  0.75658302  0.36617806     0.12700
H2254       H  0.08732374  0.72035211  0.37288086     0.12400
H2255       H  0.10844964  0.69726487  0.40082649     0.13000
H2256       H  0.13312899  0.75877895  0.43419126     0.14900
C2257       C  0.93907226  0.77374310  0.38174702    -0.05100
C2258       C  0.93955591  0.75025340  0.37660872    -0.05000
C2259       C  0.92330463  0.73541378  0.38632490    -0.23200
C2260       C  0.90724566  0.74391094  0.40201910     0.19000
C2261       C  0.90570850  0.76777559  0.40587162     0.16200
C2262       C  0.92107711  0.78259867  0.39496902    -0.18200
C2263       C  0.89061778  0.77622462  0.42249030    -0.20000
C2264       C  0.87925617  0.76096853  0.43718226    -0.12600
C2265       C  0.88226123  0.73722899  0.43467887     0.04100
C2266       C  0.89467157  0.72881915  0.41584738    -0.24700
H2267       H  0.95306583  0.74327179  0.36601423     0.09100
H2268       H  0.92451655  0.71714270  0.38308945     0.12800
H2269       H  0.92049662  0.80078131  0.39889683     0.12700
H2270       H  0.88916353  0.79452871  0.42543809     0.12400
H2271       H  0.86931932  0.76773042  0.45130870     0.13000
H2272       H  0.89682806  0.71047627  0.41358852     0.14900
C2273       C  0.04591095  0.90209885  0.34651228    -0.05100
C2274       C  0.04204020  0.91848375  0.36368537    -0.05000
C2275       C  0.05542566  0.93830319  0.36487596    -0.23200
C2276       C  0.07321312  0.94186183  0.34912884     0.19000
C2277       C  0.07618204  0.92644869  0.33063138     0.16200
C2278       C  0.06216324  0.90667300  0.32920499    -0.18200
C2279       C  0.09426207  0.93022779  0.31506457    -0.20000
C2280       C  0.11039833  0.94775340  0.31908284    -0.12600
C2281       C  0.10854270  0.96164655  0.33866263     0.04100
C2282       C  0.08922256  0.95946391  0.35282310    -0.24700
H2283       H  0.02928280  0.91538201  0.37692844     0.09100
H2284       H  0.05277271  0.95011338  0.37895417     0.12800
H2285       H  0.06518589  0.89404791  0.31593677     0.12700
H2286       H  0.09672944  0.91879962  0.30064725     0.12400
H2287       H  0.12521912  0.94928107  0.30792584     0.13000
H2288       H  0.08762679  0.97037005  0.36780555     0.14900
C2289       C  0.94353920  0.88893576  0.33767983    -0.05100
C2290       C  0.92877491  0.88707887  0.31858325    -0.05000
C2291       C  0.91195199  0.90379457  0.31450763    -0.23200
C2292       C  0.90998228  0.92267323  0.32931893     0.19000
C2293       C  0.92579541  0.92509391  0.34776832     0.16200
C2294       C  0.94231340  0.90821809  0.35184222    -0.18200
C2295       C  0.92422557  0.94381041  0.36259378    -0.20000
C2296       C  0.90615124  0.95914931  0.36029052    -0.12600
C2297       C  0.88948622  0.95624738  0.34298129     0.04100
C2298       C  0.89189955  0.93851703  0.32686975    -0.24700
H2299       H  0.92964141  0.87226552  0.30744043     0.09100
H2300       H  0.90012725  0.90164152  0.30020353     0.12800
H2301       H  0.95394831  0.90978513  0.36641853     0.12700
H2302       H  0.93637040  0.94600656  0.37663136     0.12400
H2303       H  0.90455118  0.97280018  0.37277074     0.13000
H2304       H  0.87893451  0.93611839  0.31361905     0.14900
C2305       C  0.00211207  0.78307762  0.28465195    -0.05100
C2306       C  0.98197712  0.78338636  0.27115029    -0.05000
C2307       C  0.97821679  0.76694728  0.25380119    -0.23200
C2308       C  0.99472697  0.75001725  0.24922583     0.19000
C2309       C  0.01545406  0.75019250  0.26206066     0.16200
C2310       C  0.01882523  0.76636403  0.27987126    -0.18200
C2311       C  0.03232437  0.73386998  0.25719988    -0.20000
C2312       C  0.02866909  0.71732920  0.24014646    -0.12600
C2313       C  0.00785285  0.71617816  0.22766894     0.04100
C2314       C  0.99084716  0.73277555  0.23236084    -0.24700
H2315       H  0.96861224  0.79568947  0.27478643     0.09100
H2316       H  0.96221155  0.76727179  0.24420211     0.12800
H2317       H  0.03430143  0.76571276  0.29032391     0.12700
H2318       H  0.04837648  0.73376638  0.26673741     0.12400
H2319       H  0.04207042  0.70487483  0.23720227     0.13000
H2320       H  0.97472774  0.73230447  0.22295110     0.14900
C2321       C  0.05636346  0.76816142  0.61479040    -0.05100
C2322       C  0.05157642  0.74450267  0.61548811    -0.05000
C2323       C  0.06497849  0.72941032  0.60287817    -0.23200
C2324       C  0.08273751  0.73801511  0.58894927     0.19000
C2325       C  0.08875802  0.76153617  0.58963410     0.16200
C2326       C  0.07609880  0.77628600  0.60333661    -0.18200
C2327       C  0.10576561  0.77034519  0.57488022    -0.20000
C2328       C  0.11528727  0.75632191  0.55811406    -0.12600
C2329       C  0.10844450  0.73323798  0.55659334     0.04100
C2330       C  0.09312642  0.72390263  0.57288172    -0.24700
H2331       H  0.03663199  0.73787048  0.62448284     0.09100
H2332       H  0.06033265  0.71134111  0.60261088     0.12800
H2333       H  0.08013691  0.79450858  0.60289720     0.12700
H2334       H  0.11058403  0.78836450  0.57531342     0.12400
H2335       H  0.12737121  0.76366436  0.54591259     0.13000
H2336       H  0.08775783  0.70604789  0.57186913     0.14900
C2337       C  0.92413461  0.78548832  0.61049516    -0.05100
C2338       C  0.90765267  0.79689875  0.59688793    -0.05000
C2339       C  0.89108160  0.78439199  0.58485615    -0.23200
C2340       C  0.89104619  0.76037005  0.58608401     0.19000
C2341       C  0.90590361  0.74899590  0.60171418     0.16200
C2342       C  0.92205333  0.76171151  0.61422253    -0.18200
C2343       C  0.90603118  0.72496556  0.60277525    -0.20000
C2344       C  0.89374878  0.71234986  0.58650674    -0.12600
C2345       C  0.88102077  0.72368472  0.56922139     0.04100
C2346       C  0.87825903  0.74757052  0.57025316    -0.24700
H2347       H  0.90859126  0.81531425  0.59413863     0.09100
H2348       H  0.87953858  0.79337944  0.57323595     0.12800
H2349       H  0.93438993  0.75281245  0.62507410     0.12700
H2350       H  0.91703609  0.71598648  0.61492130     0.12400
H2351       H  0.89575404  0.69385761  0.58636918     0.13000
H2352       H  0.86808688  0.75640913  0.55727689     0.14900
C2353       C  0.95521619  0.90167387  0.64715212    -0.05100
C2354       C  0.95697054  0.91692644  0.62836254    -0.05000
C2355       C  0.94270810  0.93588999  0.62667444    -0.23200
C2356       C  0.92619760  0.93967416  0.64359887     0.19000
C2357       C  0.92547387  0.92557902  0.66358336     0.16200
C2358       C  0.94040655  0.90672876  0.66545804    -0.18200
C2359       C  0.90859088  0.92954772  0.68029899    -0.20000
C2360       C  0.89143168  0.94588807  0.67620180    -0.12600
C2361       C  0.89113636  0.95841867  0.65542058     0.04100
C2362       C  0.90923985  0.95611173  0.63983401    -0.24700
H2363       H  0.96860953  0.91344806  0.61429861     0.09100
H2364       H  0.94361902  0.94673170  0.61142306     0.12800
H2365       H  0.93903830  0.89495878  0.67997344     0.12700
H2366       H  0.90784509  0.91911195  0.69582873     0.12400
H2367       H  0.87757037  0.94755873  0.68846408     0.13000
H2368       H  0.90918992  0.96601066  0.62390417     0.14900
C2369       C  0.06014059  0.88561438  0.65420638    -0.05100
C2370       C  0.07593382  0.88424833  0.67248826    -0.05000
C2371       C  0.09371295  0.90055000  0.67431044    -0.23200
C2372       C  0.09560331  0.91851173  0.65804736     0.19000
C2373       C  0.07899526  0.92037503  0.64029420     0.16200
C2374       C  0.06154444  0.90390214  0.63844804    -0.18200
C2375       C  0.08036878  0.93834036  0.62422535    -0.20000
C2376       C  0.09850562  0.95399509  0.62515086    -0.12600
C2377       C  0.11573579  0.95196785  0.64210926     0.04100
C2378       C  0.11397629  0.93433695  0.65882428    -0.24700
H2379       H  0.07504548  0.87013313  0.68474158     0.09100
H2380       H  0.10618395  0.89887946  0.68812877     0.12800
H2381       H  0.04918149  0.90504915  0.62443749     0.12700
H2382       H  0.06762219  0.94005537  0.61065613     0.12400
H2383       H  0.09925988  0.96744292  0.61215878     0.13000
H2384       H  0.12703428  0.93266409  0.67209608     0.14900
C2385       C  0.00541066  0.84185302  0.54231123    -0.05100
C2386       C  0.02728410  0.83911505  0.53230645    -0.05000
C2387       C  0.03027923  0.83922774  0.50825277    -0.23200
C2388       C  0.01149501  0.84206471  0.49321784     0.19000
C2389       C  0.98940840  0.84498097  0.50278617     0.16200
C2390       C  0.98647171  0.84490079  0.52715779    -0.18200
C2391       C  0.97060899  0.84769119  0.48773846    -0.20000
C2392       C  0.97353134  0.84724940  0.46367411    -0.12600
C2393       C  0.99536681  0.84424755  0.45368345     0.04100
C2394       C  0.01438539  0.84180884  0.46884867    -0.24700
H2395       H  0.04227519  0.83666185  0.54314518     0.09100
H2396       H  0.04739540  0.83692639  0.50139839     0.12800
H2397       H  0.96942803  0.84697737  0.53426987     0.12700
H2398       H  0.95348973  0.84997897  0.49458888     0.12400
H2399       H  0.95848889  0.84920625  0.45280451     0.13000
H2400       H  0.03137776  0.83935965  0.46173933     0.14900
C2401       C  0.61005716  0.45588058  0.85168231    -0.05100
C2402       C  0.59155224  0.45923960  0.86675511    -0.05000
C2403       C  0.57294793  0.44408008  0.86692725    -0.23200
C2404       C  0.57268210  0.42514833  0.85222453     0.19000
C2405       C  0.59046982  0.42236711  0.83597758     0.16200
C2406       C  0.60893317  0.43798863  0.83556555    -0.18200
C2407       C  0.59013730  0.40325829  0.82140795    -0.20000
C2408       C  0.57320874  0.38628457  0.82403074    -0.12600
C2409       C  0.55629832  0.38829522  0.84114159     0.04100
C2410       C  0.55561428  0.40828052  0.85449403    -0.24700
H2411       H  0.59181774  0.47315837  0.87904108     0.09100
H2412       H  0.55929515  0.44657761  0.87928945     0.12800
H2413       H  0.62305376  0.43531902  0.82377267     0.12700
H2414       H  0.60351177  0.40093346  0.80871232     0.12400
H2415       H  0.57397669  0.37112718  0.81335788     0.13000
H2416       H  0.54246472  0.41021121  0.86751241     0.14900
C2417       C  0.61393464  0.44125382  0.14426189    -0.05100
C2418       C  0.59559096  0.44480910  0.12877662    -0.05000
C2419       C  0.57686442  0.42980842  0.12833588    -0.23200
C2420       C  0.57602326  0.41097581  0.14341924     0.19000
C2421       C  0.59358766  0.40786438  0.16004537     0.16200
C2422       C  0.61248287  0.42308521  0.16039619    -0.18200
C2423       C  0.59229580  0.38906159  0.17536229    -0.20000
C2424       C  0.57436522  0.37295628  0.17342866    -0.12600
C2425       C  0.55773233  0.37541915  0.15603825     0.04100
C2426       C  0.55834341  0.39470432  0.14147103    -0.24700
H2427       H  0.59599984  0.45881952  0.11638138     0.09100
H2428       H  0.56335835  0.43256336  0.11571313     0.12800
H2429       H  0.62634705  0.42029209  0.17261139     0.12700
H2430       H  0.60548279  0.38644982  0.18833955     0.12400
H2431       H  0.57408676  0.35805909  0.18474017     0.13000
H2432       H  0.54536994  0.39662884  0.12811910     0.14900
C2433       C  0.72101311  0.48362434  0.21797272    -0.05100
C2434       C  0.73235583  0.46252349  0.22120032    -0.05000
C2435       C  0.74958528  0.45998552  0.23792071    -0.23200
C2436       C  0.75578679  0.47839462  0.25215941     0.19000
C2437       C  0.74352655  0.49922466  0.25042864     0.16200
C2438       C  0.72631410  0.50180743  0.23322394    -0.18200
C2439       C  0.74949193  0.51736354  0.26528517    -0.20000
C2440       C  0.76819592  0.51532635  0.28064254    -0.12600
C2441       C  0.78149023  0.49524903  0.28126110     0.04100
C2442       C  0.77474670  0.47663475  0.26730916    -0.24700
H2443       H  0.72877539  0.44817642  0.20993261     0.09100
H2444       H  0.75860002  0.44378568  0.23919046     0.12800
H2445       H  0.71771269  0.51816229  0.23117783     0.12700
H2446       H  0.74022052  0.53343390  0.26445206     0.12400
H2447       H  0.77315600  0.52997495  0.29098224     0.13000
H2448       H  0.78488842  0.46106570  0.26758361     0.14900
C2449       C  0.67574490  0.49965140  0.04379367    -0.05100
C2450       C  0.65356672  0.50070960  0.03386756    -0.05000
C2451       C  0.65031489  0.50151226  0.00979661    -0.23200
C2452       C  0.66913082  0.50125129  0.99467429     0.19000
C2453       C  0.69151474  0.50034889  0.00422614     0.16200
C2454       C  0.69470990  0.49961045  0.02856304    -0.18200
C2455       C  0.71036447  0.50006850  0.98922033    -0.20000
C2456       C  0.70719360  0.50047517  0.96520198    -0.12600
C2457       C  0.68506176  0.50127441  0.95512515     0.04100
C2458       C  0.66599197  0.50177186  0.97026357    -0.24700
H2459       H  0.63851886  0.50084630  0.04478012     0.09100
H2460       H  0.63295998  0.50223720  0.00300455     0.12800
H2461       H  0.71197235  0.49885126  0.03559756     0.12700
H2462       H  0.72770658  0.49943806  0.99606717     0.12400
H2463       H  0.72234396  0.50018637  0.95443646     0.13000
H2464       H  0.64877050  0.50242149  0.96312388     0.14900
C2465       C  0.76214246  0.37548972  0.05460008    -0.05100
C2466       C  0.73842553  0.37729831  0.05093147    -0.05000
C2467       C  0.72479951  0.38830555  0.06703880    -0.23200
C2468       C  0.73506818  0.39859942  0.08627246     0.19000
C2469       C  0.75886927  0.39587183  0.09057286     0.16200
C2470       C  0.77210526  0.38342779  0.07509260    -0.18200
C2471       C  0.76943042  0.40772346  0.10878384    -0.20000
C2472       C  0.75693847  0.42383427  0.12115819    -0.12600
C2473       C  0.73361980  0.42707662  0.11621565     0.04100
C2474       C  0.72243532  0.41356058  0.09979073    -0.24700
H2475       H  0.73068757  0.37119073  0.03508647     0.09100
H2476       H  0.70661655  0.39035858  0.06352225     0.12800
H2477       H  0.79055838  0.38232194  0.07759803     0.12700
H2478       H  0.78765110  0.40588656  0.11221672     0.12400
H2479       H  0.76560042  0.43441071  0.13383459     0.13000
H2480       H  0.70444368  0.41657460  0.09585718     0.14900
C2481       C  0.72352026  0.42856274  0.87200779    -0.05100
C2482       C  0.70937319  0.41245161  0.88326004    -0.05000
C2483       C  0.71914929  0.39499853  0.89654658    -0.23200
C2484       C  0.74309866  0.39357768  0.89841760     0.19000
C2485       C  0.75725201  0.40795692  0.88457993     0.16200
C2486       C  0.74729650  0.42545654  0.87141870    -0.18200
C2487       C  0.78119387  0.40626382  0.88610920    -0.20000
C2488       C  0.79101763  0.39242145  0.90310468    -0.12600
C2489       C  0.77694164  0.38043151  0.91868523     0.04100
C2490       C  0.75310985  0.37989739  0.91555234    -0.24700
H2491       H  0.69091800  0.41478500  0.88372386     0.09100
H2492       H  0.70808230  0.38385420  0.90671843     0.12800
H2493       H  0.75808273  0.43794914  0.86255246     0.12700
H2494       H  0.79224118  0.41689045  0.87538083     0.12400
H2495       H  0.80950373  0.39279409  0.90545932     0.13000
H2496       H  0.74238272  0.37041655  0.92762302     0.14900
C2497       C  0.88004688  0.35855859  0.05553091    -0.05100
C2498       C  0.89228136  0.37943109  0.05767595    -0.05000
C2499       C  0.90848926  0.38254785  0.07497827    -0.23200
C2500       C  0.91307863  0.36485556  0.09063123     0.19000
C2501       C  0.90131937  0.34358491  0.08881605     0.16200
C2502       C  0.88468301  0.34052846  0.07123679    -0.18200
C2503       C  0.90643112  0.32599233  0.10473396    -0.20000
C2504       C  0.92279617  0.32962380  0.12224434    -0.12600
C2505       C  0.93433180  0.35090860  0.12412270     0.04100
C2506       C  0.92929451  0.36834959  0.10810975    -0.24700
H2507       H  0.88911542  0.39376209  0.04609453     0.09100
H2508       H  0.91738161  0.39893542  0.07616449     0.12800
H2509       H  0.87546120  0.32435128  0.06981186     0.12700
H2510       H  0.89776638  0.30948846  0.10368437     0.12400
H2511       H  0.92644324  0.31577781  0.13426152     0.13000
H2512       H  0.93801006  0.38484412  0.10919053     0.14900
C2513       C  0.71304578  0.22119655  0.99691959    -0.05100
C2514       C  0.72909322  0.21833898  0.01493315    -0.05000
C2515       C  0.74780310  0.23372554  0.01761535    -0.23200
C2516       C  0.75137184  0.25205941  0.00196578     0.19000
C2517       C  0.73587069  0.25449962  0.98328431     0.16200
C2518       C  0.71669465  0.23947762  0.98116157    -0.18200
C2519       C  0.73968582  0.27206087  0.96704087    -0.20000
C2520       C  0.75836383  0.28722524  0.96930274    -0.12600
C2521       C  0.77367178  0.28584935  0.98817212     0.04100
C2522       C  0.76994352  0.26803107  0.00461188    -0.24700
H2523       H  0.72670465  0.20464124  0.02745739     0.09100
H2524       H  0.75945440  0.23130669  0.03202501     0.12800
H2525       H  0.70458189  0.24196278  0.96712786     0.12700
H2526       H  0.72811058  0.27416757  0.95251079     0.12400
H2527       H  0.76037236  0.30068722  0.95645129     0.13000
H2528       H  0.78143479  0.26653183  0.01927586     0.14900
C2529       C  0.73603122  0.56304800  0.12816537    -0.05100
C2530       C  0.72362339  0.58347376  0.12519020    -0.05000
C2531       C  0.73312023  0.60170932  0.11266599    -0.23200
C2532       C  0.75510052  0.59957480  0.10324392     0.19000
C2533       C  0.76871590  0.58023201  0.10901543     0.16200
C2534       C  0.75907197  0.56208762  0.12159775    -0.18200
C2535       C  0.79081910  0.57816729  0.09993794    -0.20000
C2536       C  0.79834323  0.59374101  0.08327386    -0.12600
C2537       C  0.78384131  0.61137906  0.07564758     0.04100
C2538       C  0.76277143  0.61509123  0.08637491    -0.24700
H2539       H  0.70579493  0.58443051  0.13039992     0.09100
H2540       H  0.72264499  0.61659206  0.10880995     0.12800
H2541       H  0.76866620  0.54635306  0.12423724     0.12700
H2542       H  0.80155489  0.56364205  0.10442820     0.12400
H2543       H  0.81472751  0.59092318  0.07496880     0.13000
H2544       H  0.75172611  0.62884035  0.08033959     0.14900
C2545       C  0.75946445  0.62504741  0.93970287    -0.05100
C2546       C  0.73556861  0.62298751  0.94174417    -0.05000
C2547       C  0.72325288  0.60978160  0.92597223    -0.23200
C2548       C  0.73504933  0.59754319  0.90904181     0.19000
C2549       C  0.75905784  0.60035895  0.90645712     0.16200
C2550       C  0.77089890  0.61507979  0.92113100    -0.18200
C2551       C  0.77117759  0.58661364  0.89095521    -0.20000
C2552       C  0.75978574  0.56903634  0.87928860    -0.12600
C2553       C  0.73611394  0.56612015  0.88215593     0.04100
C2554       C  0.72362650  0.58096431  0.89615381    -0.24700
H2555       H  0.72670524  0.63053973  0.95618323     0.09100
H2556       H  0.70487094  0.60763552  0.92817462     0.12800
H2557       H  0.78947926  0.61632455  0.91994208     0.12700
H2558       H  0.78961374  0.58849347  0.88900513     0.12400
H2559       H  0.76939031  0.55753656  0.86840912     0.13000
H2560       H  0.70530297  0.57824549  0.89851097     0.14900
C2561       C  0.88838418  0.64530823  0.05167284    -0.05100
C2562       C  0.90725430  0.63077545  0.04837302    -0.05000
C2563       C  0.92574295  0.63101617  0.06370026    -0.23200
C2564       C  0.92553652  0.64555868  0.08280574     0.19000
C2565       C  0.90720046  0.66102515  0.08579759     0.16200
C2566       C  0.88883521  0.66103256  0.06999850    -0.18200
C2567       C  0.90706931  0.67537885  0.10513898    -0.20000
C2568       C  0.92425809  0.67345594  0.12200533    -0.12600
C2569       C  0.94190119  0.65726915  0.11967382     0.04100
C2570       C  0.94283143  0.64400952  0.09953760    -0.24700
H2571       H  0.90746968  0.61874454  0.03422709     0.09100
H2572       H  0.93979135  0.61919397  0.06109105     0.12800
H2573       H  0.87438421  0.67234478  0.07270654     0.12700
H2574       H  0.89323471  0.68746436  0.10765034     0.12400
H2575       H  0.92324592  0.68400098  0.13725506     0.13000
H2576       H  0.95650807  0.63167066  0.09729273     0.14900
C2577       C  0.81569031  0.54331282  0.99434927    -0.05100
C2578       C  0.79402850  0.53273510  0.99091661    -0.05000
C2579       C  0.79158221  0.50870465  0.98946925    -0.23200
C2580       C  0.81071336  0.49419470  0.99143023     0.19000
C2581       C  0.83265178  0.50427822  0.99467406     0.16200
C2582       C  0.83505561  0.52867684  0.99607949    -0.18200
C2583       C  0.85176596  0.48968374  0.99656857    -0.20000
C2584       C  0.84924690  0.46559381  0.99530861    -0.12600
C2585       C  0.82751992  0.45510338  0.99220415     0.04100
C2586       C  0.80824785  0.46983293  0.99028494    -0.24700
H2587       H  0.77870547  0.54310653  0.98941472     0.09100
H2588       H  0.77456795  0.50144950  0.98690230     0.12800
H2589       H  0.85193774  0.53619468  0.99874314     0.12700
H2590       H  0.86879417  0.49691059  0.99908572     0.12400
H2591       H  0.86447064  0.45510098  0.99695444     0.13000
H2592       H  0.79129449  0.46237923  0.98788541     0.14900
C2593       C  0.55023333  0.61416733  0.85220600    -0.05100
C2594       C  0.54442012  0.59324771  0.86311075    -0.05000
C2595       C  0.56053540  0.57579855  0.86542522    -0.23200
C2596       C  0.58282730  0.57904273  0.85705797     0.19000
C2597       C  0.58860241  0.59965226  0.84521677     0.16200
C2598       C  0.57216944  0.61704322  0.84266675    -0.18200
C2599       C  0.61093349  0.60278494  0.83680100    -0.20000
C2600       C  0.62743994  0.58581916  0.84034641    -0.12600
C2601       C  0.62195091  0.56558960  0.85260188     0.04100
C2602       C  0.59955771  0.56221963  0.86078564    -0.24700
H2603       H  0.52751644  0.59064254  0.87049225     0.09100
H2604       H  0.55575529  0.56005387  0.87434926     0.12800
H2605       H  0.57681940  0.63320795  0.83444178     0.12700
H2606       H  0.61569679  0.61843175  0.82770258     0.12400
H2607       H  0.64466782  0.58871117  0.83388145     0.13000
H2608       H  0.59516831  0.54651595  0.87000882     0.14900
C2609       C  0.43800735  0.61242136  0.85343202    -0.05100
C2610       C  0.44171760  0.59411927  0.86898034    -0.05000
C2611       C  0.42621527  0.57602761  0.87057040    -0.23200
C2612       C  0.40667078  0.57574684  0.85660155     0.19000
C2613       C  0.40305656  0.59331895  0.84005044     0.16200
C2614       C  0.41891935  0.61164260  0.83843909    -0.18200
C2615       C  0.38327646  0.59248554  0.82608293    -0.20000
C2616       C  0.36692756  0.57489128  0.82921375    -0.12600
C2617       C  0.37022184  0.55796873  0.84634561     0.04100
C2618       C  0.39042923  0.55833662  0.85953510    -0.24700
H2619       H  0.45638815  0.59400041  0.88053118     0.09100
H2620       H  0.42924816  0.56251939  0.88317469     0.12800
H2621       H  0.41594569  0.62557700  0.82630645     0.12700
H2622       H  0.38022443  0.60565259  0.81314304     0.12400
H2623       H  0.35155004  0.57481335  0.81863785     0.13000
H2624       H  0.39345605  0.54520486  0.87254755     0.14900
C2625       C  0.55844191  0.60985458  0.13400081    -0.05100
C2626       C  0.56171815  0.59762451  0.11349811    -0.05000
C2627       C  0.57848276  0.58080608  0.11223133    -0.23200
C2628       C  0.59220795  0.57590122  0.13145497     0.19000
C2629       C  0.58899876  0.58785330  0.15226836     0.16200
C2630       C  0.57206392  0.60477754  0.15343358    -0.18200
C2631       C  0.60295287  0.58279808  0.17140888    -0.20000
C2632       C  0.62003246  0.56609729  0.16983130    -0.12600
C2633       C  0.62323424  0.55421947  0.14912505     0.04100
C2634       C  0.60919466  0.55926668  0.13004624    -0.24700
H2635       H  0.55152236  0.60124951  0.09825727     0.09100
H2636       H  0.58081142  0.57174540  0.09616770     0.12800
H2637       H  0.56968241  0.61410716  0.16933302     0.12700
H2638       H  0.60072732  0.59180605  0.18750931     0.12400
H2639       H  0.63067562  0.56247237  0.18475792     0.13000
H2640       H  0.61153878  0.55036234  0.11388681     0.14900
C2641       C  0.44847784  0.60543943  0.14389289    -0.05100
C2642       C  0.45195155  0.58660593  0.12930781    -0.05000
C2643       C  0.43631528  0.56842079  0.12891034    -0.23200
C2644       C  0.41683218  0.56890457  0.14291208     0.19000
C2645       C  0.41376801  0.58715631  0.15853173     0.16200
C2646       C  0.42981024  0.60520738  0.15914691    -0.18200
C2647       C  0.39414490  0.58756935  0.17243238    -0.20000
C2648       C  0.37719107  0.57064364  0.17004427    -0.12600
C2649       C  0.37968740  0.55305772  0.15376947     0.04100
C2650       C  0.39989164  0.55193899  0.14076281    -0.24700
H2651       H  0.46642707  0.58624532  0.11763979     0.09100
H2652       H  0.43900795  0.55442733  0.11702404     0.12800
H2653       H  0.42702611  0.61963469  0.17048934     0.12700
H2654       H  0.39156531  0.60135008  0.18458676     0.12400
H2655       H  0.36179704  0.57176404  0.18039234     0.13000
H2656       H  0.40213961  0.53827002  0.12839336     0.14900
C2657       C  0.50635525  0.70692106  0.21691138    -0.05100
C2658       C  0.52784793  0.71133839  0.22735227    -0.05000
C2659       C  0.53010891  0.72741437  0.24521834    -0.23200
C2660       C  0.51095484  0.73967492  0.25303945     0.19000
C2661       C  0.48917804  0.73484671  0.24323859     0.16200
C2662       C  0.48698792  0.71851919  0.22544706    -0.18200
C2663       C  0.46997312  0.74697068  0.25086964    -0.20000
C2664       C  0.47228355  0.76406911  0.26755903    -0.12600
C2665       C  0.49388032  0.76975356  0.27714193     0.04100
C2666       C  0.51322695  0.75711324  0.26991163    -0.24700
H2667       H  0.54312425  0.70281719  0.22125263     0.09100
H2668       H  0.54698252  0.73068438  0.25250037     0.12800
H2669       H  0.47029394  0.71558681  0.21760175     0.12700
H2670       H  0.45312710  0.74355445  0.24357717     0.12400
H2671       H  0.45704003  0.77339667  0.27243909     0.13000
H2672       H  0.53004965  0.76122149  0.27689326     0.14900
C2673       C  0.49015067  0.67055673  0.95439982    -0.05100
C2674       C  0.49089233  0.64845309  0.96453626    -0.05000
C2675       C  0.49135463  0.64542952  0.98860243    -0.23200
C2676       C  0.49119470  0.66442382  0.00340705     0.19000
C2677       C  0.49009191  0.68672759  0.99363843     0.16200
C2678       C  0.48949079  0.68967678  0.96931481    -0.18200
C2679       C  0.48994719  0.70573176  0.00840906    -0.20000
C2680       C  0.49127074  0.70277497  0.03243687    -0.12600
C2681       C  0.49272273  0.68072301  0.04260096     0.04100
C2682       C  0.49242978  0.66152478  0.02773365    -0.24700
H2683       H  0.49134548  0.63332725  0.95380043     0.09100
H2684       H  0.49211626  0.62814400  0.99563625     0.12800
H2685       H  0.48892923  0.70687708  0.96203816     0.12700
H2686       H  0.48904201  0.72300755  0.00136181     0.12400
H2687       H  0.49133246  0.71795308  0.04311430     0.13000
H2688       H  0.49348079  0.64435726  0.03502374     0.14900
C2689       C  0.61289459  0.78264789  0.07667972    -0.05100
C2690       C  0.59709677  0.79516672  0.08978918    -0.05000
C2691       C  0.58366410  0.78405263  0.10625613    -0.23200
C2692       C  0.58585619  0.76036265  0.10959196     0.19000
C2693       C  0.60378828  0.74832318  0.09866912     0.16200
C2694       C  0.61758190  0.75973623  0.08257833    -0.18200
C2695       C  0.60589826  0.72456622  0.10200691    -0.20000
C2696       C  0.58878645  0.71250333  0.11378355    -0.12600
C2697       C  0.56963647  0.72421279  0.12227287     0.04100
C2698       C  0.56896200  0.74818136  0.12155406    -0.24700
H2699       H  0.59359110  0.81304693  0.08591771     0.09100
H2700       H  0.57029967  0.79356305  0.11488068     0.12800
H2701       H  0.63013136  0.75011760  0.07289410     0.12700
H2702       H  0.61969789  0.71513753  0.09400184     0.12400
H2703       H  0.58949918  0.69390442  0.11446945     0.13000
H2704       H  0.55424276  0.75711149  0.12848382     0.14900
C2705       C  0.61549079  0.74520640  0.95041084    -0.05100
C2706       C  0.60352368  0.72613199  0.95923496    -0.05000
C2707       C  0.58939831  0.71326696  0.94470725    -0.23200
C2708       C  0.58703273  0.71975666  0.92149490     0.19000
C2709       C  0.60127786  0.73715008  0.91202159     0.16200
C2710       C  0.61606284  0.74927139  0.92653240    -0.18200
C2711       C  0.59853114  0.74394509  0.88887893    -0.20000
C2712       C  0.58028246  0.73512695  0.87588351    -0.12600
C2713       C  0.56505373  0.71941280  0.88604494     0.04100
C2714       C  0.56914515  0.71083610  0.90827558    -0.24700
H2715       H  0.60302208  0.72279619  0.97762120     0.09100
H2716       H  0.57875414  0.69972981  0.95203891     0.12800
H2717       H  0.62561661  0.76389955  0.91976114     0.12700
H2718       H  0.60948367  0.75713279  0.88137921     0.12400
H2719       H  0.57730488  0.74146090  0.85853234     0.13000
H2720       H  0.55737945  0.69832566  0.91579086     0.14900
C2721       C  0.66430598  0.88172809  0.04389880    -0.05100
C2722       C  0.67146210  0.90386269  0.03724389    -0.05000
C2723       C  0.67316018  0.92132983  0.05378887    -0.23200
C2724       C  0.66717599  0.91681273  0.07689816     0.19000
C2725       C  0.66125337  0.89409945  0.08356346     0.16200
C2726       C  0.66042064  0.87676296  0.06717499    -0.18200
C2727       C  0.65437543  0.88927123  0.10614082    -0.20000
C2728       C  0.65186802  0.90700599  0.12175786    -0.12600
C2729       C  0.65683700  0.92975363  0.11531029     0.04100
C2730       C  0.66537169  0.93462277  0.09311681    -0.24700
H2731       H  0.67425493  0.90795369  0.01922863     0.09100
H2732       H  0.67776764  0.93858800  0.04829233     0.12800
H2733       H  0.65473996  0.85963279  0.07220954     0.12700
H2734       H  0.64976215  0.87192705  0.11139038     0.12400
H2735       H  0.64533049  0.90305697  0.13881011     0.13000
H2736       H  0.66892297  0.95226533  0.08805953     0.14900
C2737       C  0.71484558  0.77478387  0.99520574    -0.05100
C2738       C  0.72586968  0.77215840  0.97387904    -0.05000
C2739       C  0.74439959  0.75691406  0.97153079    -0.23200
C2740       C  0.75263651  0.74423023  0.99057691     0.19000
C2741       C  0.74245949  0.74767055  0.01233918     0.16200
C2742       C  0.72352154  0.76260430  0.01445323    -0.18200
C2743       C  0.75094509  0.73557484  0.03153446    -0.20000
C2744       C  0.76861602  0.71952806  0.02912947    -0.12600
C2745       C  0.77822597  0.71481624  0.00742246     0.04100
C2746       C  0.77032730  0.72771914  0.98818484    -0.24700
H2747       H  0.71940737  0.78104542  0.95874223     0.09100
H2748       H  0.75196962  0.75468275  0.95467854     0.12800
H2749       H  0.71518827  0.76440056  0.03101393     0.12700
H2750       H  0.74353946  0.73813307  0.04841686     0.12400
H2751       H  0.77412258  0.71008252  0.04430519     0.13000
H2752       H  0.77743055  0.72447991  0.97129689     0.14900
C2753       C  0.38595611  0.77548391  0.07530515    -0.05100
C2754       C  0.40388408  0.78948721  0.08342181    -0.05000
C2755       C  0.41877448  0.78136344  0.10037547    -0.23200
C2756       C  0.41584801  0.75908635  0.10915264     0.19000
C2757       C  0.39637033  0.74584034  0.10266197     0.16200
C2758       C  0.38143906  0.75419016  0.08564116    -0.18200
C2759       C  0.39349337  0.72359635  0.11158108    -0.20000
C2760       C  0.41115269  0.71352544  0.12433008    -0.12600
C2761       C  0.43176307  0.72566027  0.12816763     0.04100
C2762       C  0.43330712  0.74895956  0.12218447    -0.24700
H2763       H  0.40738294  0.80601779  0.07537949     0.09100
H2764       H  0.43345855  0.79179550  0.10534252     0.12800
H2765       H  0.36754918  0.74348837  0.07916231     0.12700
H2766       H  0.37848951  0.71338196  0.10715709     0.12400
H2767       H  0.40957372  0.69554920  0.12911324     0.13000
H2768       H  0.44906935  0.75845410  0.12553737     0.14900
C2769       C  0.37596679  0.75860450  0.93746383    -0.05100
C2770       C  0.37362893  0.73467011  0.93703242    -0.05000
C2771       C  0.38383038  0.72229167  0.91938265    -0.23200
C2772       C  0.39755637  0.73378064  0.90306920     0.19000
C2773       C  0.39918888  0.75805140  0.90312175     0.16200
C2774       C  0.38747748  0.77032823  0.91975649    -0.18200
C2775       C  0.41454513  0.76947040  0.88833303    -0.20000
C2776       C  0.43002304  0.75678579  0.87547499    -0.12600
C2777       C  0.42912060  0.73275531  0.87628941     0.04100
C2778       C  0.41181009  0.72133879  0.88864250    -0.24700
H2779       H  0.36463067  0.72561295  0.95069777     0.09100
H2780       H  0.38254964  0.70369920  0.91958935     0.12800
H2781       H  0.38948984  0.78887436  0.92046397     0.12700
H2782       H  0.41601469  0.78805217  0.88833372     0.12400
H2783       H  0.44348626  0.76561162  0.86598574     0.13000
H2784       H  0.41157603  0.70269545  0.88950479     0.14900
C2785       C  0.34576611  0.93292784  0.12152320    -0.05100
C2786       C  0.32835519  0.91618641  0.12370548    -0.05000
C2787       C  0.32512786  0.89971765  0.10657962    -0.23200
C2788       C  0.33934248  0.89973039  0.08714095     0.19000
C2789       C  0.35610785  0.91724644  0.08438878     0.16200
C2790       C  0.35906400  0.93375990  0.10143380    -0.18200
C2791       C  0.37041149  0.91743462  0.06512430    -0.20000
C2792       C  0.36916430  0.89958580  0.04942544    -0.12600
C2793       C  0.35352060  0.88128838  0.05266993     0.04100
C2794       C  0.33794443  0.88192991  0.07104271    -0.24700
H2795       H  0.31767539  0.91540072  0.13893399     0.09100
H2796       H  0.31205790  0.88655256  0.10890226     0.12800
H2797       H  0.37232347  0.94679866  0.09935320     0.12700
H2798       H  0.38317851  0.93088321  0.06267391     0.12400
H2799       H  0.38112736  0.89969233  0.03516755     0.13000
H2800       H  0.32580818  0.86793180  0.07363584     0.14900
C2801       C  0.28615489  0.77080876  0.99757011    -0.05100
C2802       C  0.28721965  0.75624925  0.97832530    -0.05000
C2803       C  0.27158791  0.73817933  0.97530088    -0.23200
C2804       C  0.25390159  0.73426988  0.99115980     0.19000
C2805       C  0.25174952  0.74902056  0.01026817     0.16200
C2806       C  0.26821609  0.76700676  0.01369028    -0.18200
C2807       C  0.23328933  0.74518159  0.02555670    -0.20000
C2808       C  0.21770360  0.72672484  0.02222699    -0.12600
C2809       C  0.22046646  0.71136607  0.00382176     0.04100
C2810       C  0.23861648  0.71553659  0.98828837    -0.24700
H2811       H  0.30082186  0.75834066  0.96577015     0.09100
H2812       H  0.27346926  0.72710228  0.96051084     0.12800
H2813       H  0.26702547  0.77795112  0.02864841     0.12700
H2814       H  0.23106011  0.75627236  0.04027198     0.12400
H2815       H  0.20410354  0.72385986  0.03462657     0.13000
H2816       H  0.24102353  0.70392205  0.97398743     0.14900
C2817       C  0.45605252  0.81456133  0.99778687    -0.05100
C2818       C  0.46687701  0.79650591  0.98612568    -0.05000
C2819       C  0.49083008  0.79595902  0.98361103    -0.23200
C2820       C  0.50483824  0.81324464  0.99306809     0.19000
C2821       C  0.49446817  0.83138691  0.00519024     0.16200
C2822       C  0.47012973  0.83214361  0.00721090    -0.18200
C2823       C  0.50872501  0.84824081  0.01523350    -0.20000
C2824       C  0.53283641  0.84705332  0.01337827    -0.12600
C2825       C  0.54339506  0.82926106  0.00102828     0.04100
C2826       C  0.52904471  0.81247005  0.99079841    -0.24700
H2827       H  0.45671971  0.78278760  0.97861475     0.09100
H2828       H  0.49843026  0.78183025  0.97434985     0.12800
H2829       H  0.46222171  0.84612844  0.01643315     0.12700
H2830       H  0.50123901  0.86226708  0.02473419     0.12400
H2831       H  0.54325400  0.86020645  0.02151196     0.13000
H2832       H  0.53674296  0.79844212  0.98145527     0.14900
C2833       C  0.56577637  0.84508803  0.62307627    -0.05100
C2834       C  0.56370999  0.82759099  0.60652752    -0.05000
C2835       C  0.57907502  0.82642817  0.58804664    -0.23200
C2836       C  0.59676128  0.84279059  0.58570513     0.19000
C2837       C  0.59917285  0.86013507  0.60250250     0.16200
C2838       C  0.58385726  0.86107603  0.62105147    -0.18200
C2839       C  0.61659556  0.87665113  0.60029114    -0.20000
C2840       C  0.63135106  0.87627650  0.58147894    -0.12600
C2841       C  0.62917383  0.85930059  0.56443672     0.04100
C2842       C  0.61186335  0.84238993  0.56676982    -0.24700
H2843       H  0.54989539  0.81505961  0.60756398     0.09100
H2844       H  0.57688687  0.81297489  0.57540352     0.12800
H2845       H  0.58569915  0.87469416  0.63358438     0.12700
H2846       H  0.61868939  0.89004773  0.61301601     0.12400
H2847       H  0.64454753  0.88944946  0.58031249     0.13000
H2848       H  0.60991551  0.82923314  0.55377264     0.14900
C2849       C  0.45689806  0.84721198  0.60294100    -0.05100
C2850       C  0.46034378  0.86163844  0.58373700    -0.05000
C2851       C  0.44333186  0.86390359  0.56694910    -0.23200
C2852       C  0.42242051  0.85212467  0.56939722     0.19000
C2853       C  0.41932675  0.83645168  0.58790754     0.16200
C2854       C  0.43685113  0.83373282  0.60439200    -0.18200
C2855       C  0.39821489  0.82495351  0.59040046    -0.20000
C2856       C  0.38001484  0.82975746  0.57535233    -0.12600
C2857       C  0.38267670  0.84608888  0.55755072     0.04100
C2858       C  0.40417966  0.85671306  0.55431520    -0.24700
H2859       H  0.47573770  0.87214841  0.58239907     0.09100
H2860       H  0.44603526  0.87583243  0.55276202     0.12800
H2861       H  0.43401373  0.82282894  0.61937034     0.12700
H2862       H  0.39553839  0.81282571  0.60441858     0.12400
H2863       H  0.36366875  0.82115681  0.57805581     0.13000
H2864       H  0.40657134  0.86909835  0.54045252     0.14900
C2865       C  0.49678684  0.78158390  0.71842828    -0.05100
C2866       C  0.51703596  0.76846431  0.71819732    -0.05000
C2867       C  0.52033617  0.75027521  0.73408070    -0.23200
C2868       C  0.50325054  0.74445683  0.75029073     0.19000
C2869       C  0.48239692  0.75680223  0.74976977     0.16200
C2870       C  0.47945405  0.77535020  0.73420650    -0.18200
C2871       C  0.46491516  0.75079866  0.76522010    -0.20000
C2872       C  0.46811097  0.73321601  0.78143559    -0.12600
C2873       C  0.48904894  0.72124243  0.78314761     0.04100
C2874       C  0.50665578  0.72694436  0.76724519    -0.24700
H2875       H  0.53080106  0.77300262  0.70647069     0.09100
H2876       H  0.53643194  0.74103117  0.73393847     0.12800
H2877       H  0.46375043  0.78526396  0.73463907     0.12700
H2878       H  0.44875751  0.75995516  0.76499880     0.12400
H2879       H  0.45423620  0.72958678  0.79333668     0.13000
H2880       H  0.52290596  0.71799484  0.76816737     0.14900
C2881       C  0.56904498  0.14779247  0.62083034    -0.05100
C2882       C  0.58736782  0.16331592  0.62422821    -0.05000
C2883       C  0.60351867  0.16726627  0.60682059    -0.23200
C2884       C  0.60155580  0.15581611  0.58572175     0.19000
C2885       C  0.58284932  0.14061916  0.58203518     0.16200
C2886       C  0.56681179  0.13671021  0.59953299    -0.18200
C2887       C  0.58067263  0.12916375  0.56105317    -0.20000
C2888       C  0.59739412  0.13194470  0.54417737    -0.12600
C2889       C  0.61662620  0.14627626  0.54790754     0.04100
C2890       C  0.61828940  0.15870818  0.56852519    -0.24700
H2891       H  0.58941058  0.17216793  0.64046124     0.09100
H2892       H  0.61768895  0.17902619  0.60997130     0.12800
H2893       H  0.55264195  0.12487920  0.59656028     0.12700
H2894       H  0.56633437  0.11759934  0.55790109     0.12400
H2895       H  0.59555578  0.12229371  0.52838273     0.13000
H2896       H  0.63305584  0.16973782  0.57162850     0.14900
C2897       C  0.45398607  0.14386304  0.61223447    -0.05100
C2898       C  0.45785183  0.12972015  0.59305058    -0.05000
C2899       C  0.44185195  0.12837352  0.57511868    -0.23200
C2900       C  0.42152964  0.14106234  0.57597367     0.19000
C2901       C  0.41785646  0.15615620  0.59456967     0.16200
C2902       C  0.43418103  0.15760521  0.61252071    -0.18200
C2903       C  0.39752089  0.16891518  0.59526798    -0.20000
C2904       C  0.38068433  0.16615957  0.57819326    -0.12600
C2905       C  0.38377761  0.15053748  0.56008258     0.04100
C2906       C  0.40454362  0.13836446  0.55889090    -0.24700
H2907       H  0.47303819  0.11910765  0.59216016     0.09100
H2908       H  0.44508652  0.11688800  0.56090012     0.12800
H2909       H  0.43094222  0.16858334  0.62714122     0.12700
H2910       H  0.39440525  0.18066947  0.60928618     0.12400
H2911       H  0.36494407  0.17587474  0.57951983     0.13000
H2912       H  0.40733561  0.12645139  0.54492233     0.14900
C2913       C  0.49795284  0.27691423  0.78290303    -0.05100
C2914       C  0.47604579  0.26969271  0.77517721    -0.05000
C2915       C  0.47348426  0.25313362  0.75780069    -0.23200
C2916       C  0.49276207  0.24309634  0.74753797     0.19000
C2917       C  0.51488836  0.25054898  0.75455290     0.16200
C2918       C  0.51738257  0.26737358  0.77205159    -0.18200
C2919       C  0.53418185  0.24058055  0.74433241    -0.20000
C2920       C  0.53169320  0.22303718  0.72800312    -0.12600
C2921       C  0.50983904  0.21473997  0.72120429     0.04100
C2922       C  0.49032313  0.22533646  0.73091571    -0.24700
H2923       H  0.46067745  0.27654594  0.78293744     0.09100
H2924       H  0.45632184  0.24784342  0.75270962     0.12800
H2925       H  0.53444106  0.27249560  0.77765889     0.12700
H2926       H  0.55132953  0.24602223  0.74932311     0.12400
H2927       H  0.54714505  0.21550497  0.72109171     0.13000
H2928       H  0.47330851  0.21928026  0.72617962     0.14900
C2929       C  0.50848916  0.04051449  0.67089808    -0.05100
C2930       C  0.49696515  0.03150343  0.65151610    -0.05000
C2931       C  0.49540441  0.00766422  0.64771890    -0.23200
C2932       C  0.50587118  0.99185622  0.66284175     0.19000
C2933       C  0.51818467  0.00041678  0.68203652     0.16200
C2934       C  0.51905101  0.02458924  0.68623570    -0.18200
C2935       C  0.52946156  0.98456155  0.69657075    -0.20000
C2936       C  0.52831440  0.96072070  0.69235659    -0.12600
C2937       C  0.51537482  0.95172427  0.67386795     0.04100
C2938       C  0.50420325  0.96770247  0.65909319    -0.24700
H2939       H  0.48862825  0.04300440  0.63938189     0.09100
H2940       H  0.48599974  0.00158644  0.63278468     0.12800
H2941       H  0.52824749  0.03098982  0.70116465     0.12700
H2942       H  0.53923739  0.99058972  0.71128898     0.12400
H2943       H  0.53719700  0.94916169  0.70398778     0.13000
H2944       H  0.49425065  0.96137378  0.64462037     0.14900
C2945       C  0.38368868  0.07060421  0.77644901    -0.05100
C2946       C  0.39722323  0.08401794  0.79129607    -0.05000
C2947       C  0.41237354  0.10037077  0.78227223    -0.23200
C2948       C  0.41383067  0.10346576  0.75837542     0.19000
C2949       C  0.39804949  0.09202359  0.74366947     0.16200
C2950       C  0.38305933  0.07553800  0.75286142    -0.18200
C2951       C  0.39916522  0.09548744  0.71980667    -0.20000
C2952       C  0.41731697  0.10810876  0.71043741    -0.12600
C2953       C  0.43445781  0.11710858  0.72486792     0.04100
C2954       C  0.43212144  0.11589262  0.74880248    -0.24700
H2955       H  0.39774752  0.08026689  0.80961329     0.09100
H2956       H  0.42406033  0.10928906  0.79378333     0.12800
H2957       H  0.37243168  0.06515897  0.74153236     0.12700
H2958       H  0.38699509  0.08714662  0.70836023     0.12400
H2959       H  0.41906780  0.10912209  0.69187086     0.13000
H2960       H  0.44542128  0.12307076  0.75981091     0.14900
C2961       C  0.37395389  0.93416868  0.75463412    -0.05100
C2962       C  0.37574519  0.91187778  0.76395786    -0.05000
C2963       C  0.38611983  0.89450770  0.75137649    -0.23200
C2964       C  0.39464783  0.89928194  0.72932803     0.19000
C2965       C  0.39010865  0.92081710  0.71880407     0.16200
C2966       C  0.37976111  0.93818679  0.73156283    -0.18200
C2967       C  0.39811945  0.92539950  0.69655886    -0.20000
C2968       C  0.41325940  0.91023749  0.68623153    -0.12600
C2969       C  0.42068605  0.89046181  0.69817433     0.04100
C2970       C  0.40975844  0.88403054  0.71876479    -0.24700
H2971       H  0.37098604  0.90838231  0.78167827     0.09100
H2972       H  0.38901296  0.87795127  0.75953103     0.12800
H2973       H  0.37790978  0.95526642  0.72418795     0.12700
H2974       H  0.39427394  0.94154429  0.68798208     0.12400
H2975       H  0.42095725  0.91531088  0.66999065     0.13000
H2976       H  0.41493861  0.86851712  0.72781190     0.14900
C2977       C  0.36192004  0.04722436  0.88640742    -0.05100
C2978       C  0.38311224  0.05277658  0.89673527    -0.05000
C2979       C  0.38458236  0.06973658  0.91344140    -0.23200
C2980       C  0.36484504  0.08133632  0.92037608     0.19000
C2981       C  0.34319983  0.07532518  0.91099235     0.16200
C2982       C  0.34186163  0.05833900  0.89387692    -0.18200
C2983       C  0.32347993  0.08681625  0.91858094    -0.20000
C2984       C  0.32536579  0.10453648  0.93476231    -0.12600
C2985       C  0.34702685  0.11117399  0.94333044     0.04100
C2986       C  0.36660109  0.09916737  0.93627252    -0.24700
H2987       H  0.39882530  0.04461823  0.89124965     0.09100
H2988       H  0.40126690  0.07409414  0.92061717     0.12800
H2989       H  0.32540729  0.05411374  0.88610945     0.12700
H2990       H  0.30668230  0.08232038  0.91178766     0.12400
H2991       H  0.31000587  0.11339494  0.94013294     0.13000
H2992       H  0.38337877  0.10376413  0.94310463     0.14900
C2993       C  0.35451100  0.93132949  0.87385625    -0.05100
C2994       C  0.34001943  0.91244715  0.86927112    -0.05000
C2995       C  0.33771065  0.89453882  0.88533926    -0.23200
C2996       C  0.34973354  0.89531599  0.90631461     0.19000
C2997       C  0.36405701  0.91445244  0.91112769     0.16200
C2998       C  0.36637364  0.93223408  0.89492098    -0.18200
C2999       C  0.37611187  0.91542651  0.93197742    -0.20000
C3000       C  0.37446150  0.89737327  0.94775471    -0.12600
C3001       C  0.36064700  0.87799667  0.94308160     0.04100
C3002       C  0.34800430  0.87719963  0.92241072    -0.24700
H3003       H  0.33077480  0.91132252  0.85307767     0.09100
H3004       H  0.32667761  0.88003022  0.88129084     0.12800
H3005       H  0.37749229  0.94676994  0.89871362     0.12700
H3006       H  0.38706471  0.93001854  0.93596959     0.12400
H3007       H  0.38424798  0.89852119  0.96363000     0.13000
H3008       H  0.33740069  0.86230387  0.91859011     0.14900
C3009       C  0.28386511  0.00461795  0.78052399    -0.05100
C3010       C  0.27658545  0.02700861  0.77480546    -0.05000
C3011       C  0.25886750  0.03072783  0.75878245    -0.23200
C3012       C  0.24785415  0.01215817  0.74798176     0.19000
C3013       C  0.25418247  0.98952779  0.75422129     0.16200
C3014       C  0.27206932  0.98587118  0.77044219    -0.18200
C3015       C  0.24306374  0.97096973  0.74347087    -0.20000
C3016       C  0.22666801  0.97475775  0.72606824    -0.12600
C3017       C  0.22086459  0.99720392  0.71890512     0.04100
C3018       C  0.23125480  0.01587028  0.73047616    -0.24700
H3019       H  0.28517017  0.04183804  0.78212816     0.09100
H3020       H  0.25421573  0.04822267  0.75436619     0.12800
H3021       H  0.27734767  0.96847489  0.77451958     0.12700
H3022       H  0.24751297  0.95346337  0.74805885     0.12400
H3023       H  0.21908565  0.95997517  0.71764950     0.13000
H3024       H  0.22712734  0.03329656  0.72527447     0.14900
C3025       C  0.63142653  0.07651682  0.77820373    -0.05100
C3026       C  0.63906578  0.08266393  0.75614765    -0.05000
C3027       C  0.62665676  0.09856510  0.74305994    -0.23200
C3028       C  0.60595422  0.10720966  0.75165553     0.19000
C3029       C  0.59957509  0.10259625  0.77475470     0.16200
C3030       C  0.61316033  0.08817457  0.78826681    -0.18200
C3031       C  0.57808782  0.10951269  0.78288698    -0.20000
C3032       C  0.56192686  0.11831146  0.76749883    -0.12600
C3033       C  0.56763732  0.12139653  0.74425048     0.04100
C3034       C  0.59015347  0.11754756  0.73675999    -0.24700
H3035       H  0.65302459  0.07342532  0.74820957     0.09100
H3036       H  0.63175586  0.10195348  0.72540835     0.12800
H3037       H  0.60721559  0.08292474  0.80523610     0.12700
H3038       H  0.57303219  0.10610469  0.80054977     0.12400
H3039       H  0.54465245  0.12163592  0.77345885     0.13000
H3040       H  0.59444071  0.11987748  0.71870992     0.14900
C3041       C  0.59387003  0.94859003  0.76240989    -0.05100
C3042       C  0.57300553  0.95834148  0.75516295    -0.05000
C3043       C  0.55391420  0.94440708  0.75114024    -0.23200
C3044       C  0.55567061  0.92055143  0.75373157     0.19000
C3045       C  0.57671556  0.91061260  0.76072577     0.16200
C3046       C  0.59563022  0.92471352  0.76509636    -0.18200
C3047       C  0.57870316  0.88668553  0.76249725    -0.20000
C3048       C  0.56073042  0.87269908  0.75496753    -0.12600
C3049       C  0.54043576  0.88262050  0.74664121     0.04100
C3050       C  0.53726634  0.90637587  0.74774692    -0.24700
H3051       H  0.57111003  0.97680716  0.75369871     0.09100
H3052       H  0.53784965  0.95225802  0.74595167     0.12800
H3053       H  0.61163661  0.91713297  0.77091875     0.12700
H3054       H  0.59469153  0.87885848  0.76796446     0.12400
H3055       H  0.56339428  0.85434395  0.75365166     0.13000
H3056       H  0.52173442  0.91395042  0.74066627     0.14900
C3057       C  0.64728207  0.92835960  0.86707561    -0.05100
C3058       C  0.66851594  0.91726504  0.86965830    -0.05000
C3059       C  0.67115864  0.89967060  0.88608473    -0.23200
C3060       C  0.65247405  0.89270273  0.89978311     0.19000
C3061       C  0.63092407  0.90339387  0.89658232     0.16200
C3062       C  0.62856649  0.92118548  0.88050566    -0.18200
C3063       C  0.61197620  0.89625420  0.90956928    -0.20000
C3064       C  0.61430019  0.87875767  0.92581462    -0.12600
C3065       C  0.63568905  0.86829390  0.92967382     0.04100
C3066       C  0.65482972  0.87533668  0.91662182    -0.24700
H3067       H  0.68315362  0.92257510  0.85939647     0.09100
H3068       H  0.68777557  0.89159836  0.88812980     0.12800
H3069       H  0.61201683  0.92942577  0.87835263     0.12700
H3070       H  0.59534994  0.90425003  0.90721600     0.12400
H3071       H  0.59935371  0.87373165  0.93577902     0.13000
H3072       H  0.67133305  0.86721769  0.91941181     0.14900
C3073       C  0.66289860  0.10926722  0.94034725    -0.05100
C3074       C  0.67856258  0.11384242  0.92254361    -0.05000
C3075       C  0.68207118  0.09760364  0.90522926    -0.23200
C3076       C  0.67006465  0.07657438  0.90569385     0.19000
C3077       C  0.65566713  0.07133405  0.92464842     0.16200
C3078       C  0.65215056  0.08771756  0.94177628    -0.18200
C3079       C  0.64382889  0.05036910  0.92547331    -0.20000
C3080       C  0.64461422  0.03552803  0.90681850    -0.12600
C3081       C  0.65729588  0.04131332  0.88698051     0.04100
C3082       C  0.67095511  0.06137416  0.88696192    -0.24700
H3083       H  0.68696189  0.13047666  0.92126927     0.09100
H3084       H  0.69333996  0.10189602  0.89098973     0.12800
H3085       H  0.64015773  0.08417477  0.95564772     0.12700
H3086       H  0.63303509  0.04595120  0.94005154     0.12400
H3087       H  0.63429035  0.01996977  0.90747481     0.13000
H3088       H  0.68085092  0.06598073  0.87180564     0.14900
C3089       C  0.71116737  0.98839211  0.76578127    -0.05100
C3090       C  0.71005271  0.96970731  0.75045694    -0.05000
C3091       C  0.72560436  0.96762322  0.73232477    -0.23200
C3092       C  0.74300959  0.98402611  0.72899459     0.19000
C3093       C  0.74509622  0.00254711  0.74450268     0.16200
C3094       C  0.72904338  0.00476361  0.76273883    -0.18200
C3095       C  0.76300341  0.01862520  0.74115119    -0.20000
C3096       C  0.77821254  0.01662815  0.72244367    -0.12600
C3097       C  0.77565631  0.99873019  0.70644422     0.04100
C3098       C  0.75804907  0.98236072  0.71009686    -0.24700
H3099       H  0.69665589  0.95678607  0.75206147     0.09100
H3100       H  0.72380630  0.95323865  0.72068657     0.12800
H3101       H  0.73028700  0.01928371  0.77426327     0.12700
H3102       H  0.76506181  0.03294647  0.75281269     0.12400
H3103       H  0.79142371  0.02960894  0.71997745     0.13000
H3104       H  0.75584053  0.96841298  0.69798388     0.14900
C3105       C  0.45768541  0.99623415  0.81473859    -0.05100
C3106       C  0.46829684  0.99894643  0.79305709    -0.05000
C3107       C  0.49225730  0.00049823  0.79089406    -0.23200
C3108       C  0.50661095  0.99939092  0.81034306     0.19000
C3109       C  0.49657164  0.99656183  0.83232336     0.16200
C3110       C  0.47218939  0.99502376  0.83444476    -0.18200
C3111       C  0.51120580  0.99530940  0.85169048    -0.20000
C3112       C  0.53530913  0.99671978  0.84928971    -0.12600
C3113       C  0.54557236  0.99962429  0.82747563     0.04100
C3114       C  0.53082526  0.00098584  0.80806300    -0.24700
H3115       H  0.45800279  0.99998018  0.77750077     0.09100
H3116       H  0.49958192  0.00260533  0.77386061     0.12800
H3117       H  0.46457899  0.99298643  0.85135263     0.12700
H3118       H  0.50401335  0.99312571  0.86876368     0.12400
H3119       H  0.54594926  0.99553407  0.86459965     0.13000
H3120       H  0.53818730  0.00302017  0.79103333     0.14900
C3121       C  0.83975250  0.61146198  0.54643913    -0.05100
C3122       C  0.85188046  0.59130619  0.54174299    -0.05000
C3123       C  0.85393054  0.57410601  0.55844158    -0.23200
C3124       C  0.84429120  0.57712035  0.58025706     0.19000
C3125       C  0.83074033  0.59671794  0.58464142     0.16200
C3126       C  0.82828268  0.61371138  0.56749479    -0.18200
C3127       C  0.82120383  0.59964994  0.60656572    -0.20000
C3128       C  0.82589029  0.58385145  0.62421393    -0.12600
C3129       C  0.84033015  0.56504122  0.62022959     0.04100
C3130       C  0.84903136  0.56148102  0.59807287    -0.24700
H3131       H  0.86101105  0.58955808  0.52561908     0.09100
H3132       H  0.86418736  0.55910999  0.55475247     0.12800
H3133       H  0.81930264  0.62951039  0.57125053     0.12700
H3134       H  0.81071340  0.61448312  0.61024295     0.12400
H3135       H  0.81887984  0.58676783  0.64119736     0.13000
H3136       H  0.85988053  0.54678040  0.59482702     0.14900
C3137       C  0.84935714  0.39099037  0.55596342    -0.05100
C3138       C  0.82992513  0.39009506  0.57033568    -0.05000
C3139       C  0.82680650  0.40650121  0.58746605    -0.23200
C3140       C  0.84311620  0.42403129  0.59060866     0.19000
C3141       C  0.86210983  0.42570657  0.57554721     0.16200
C3142       C  0.86501585  0.40932138  0.55825680    -0.18200
C3143       C  0.87842759  0.44320183  0.57859521    -0.20000
C3144       C  0.87653961  0.45828622  0.59700972    -0.12600
C3145       C  0.85827346  0.45620179  0.61274185     0.04100
C3146       C  0.84123983  0.43936011  0.60905419    -0.24700
H3147       H  0.81749713  0.37623222  0.56890444     0.09100
H3148       H  0.81204190  0.40503199  0.59871982     0.12800
H3149       H  0.88001256  0.41032719  0.54725626     0.12700
H3150       H  0.89300787  0.44483275  0.56711933     0.12400
H3151       H  0.88982091  0.47121816  0.59925861     0.13000
H3152       H  0.82696830  0.43767070  0.62091433     0.14900
C3153       C  0.77829060  0.49818882  0.71855231    -0.05100
C3154       C  0.76963536  0.47615946  0.72408327    -0.05000
C3155       C  0.75196618  0.47326640  0.74031228    -0.23200
C3156       C  0.74255551  0.49233779  0.75149490     0.19000
C3157       C  0.75036597  0.51459932  0.74528852     0.16200
C3158       C  0.76798989  0.51739109  0.72887643    -0.18200
C3159       C  0.74107851  0.53373859  0.75626884    -0.20000
C3160       C  0.72504874  0.53089673  0.77394984    -0.12600
C3161       C  0.71776766  0.50884573  0.78122187     0.04100
C3162       C  0.72621167  0.48955691  0.76936659    -0.24700
H3163       H  0.77710900  0.46101853  0.71648879     0.09100
H3164       H  0.74617451  0.45603350  0.74463999     0.12800
H3165       H  0.77431617  0.53452935  0.72488538     0.12700
H3166       H  0.74672247  0.55095472  0.75165664     0.12400
H3167       H  0.71889669  0.54614131  0.78248069     0.13000
H3168       H  0.72089669  0.47243445  0.77467204     0.14900
C3169       C  0.14729492  0.56373058  0.61952737    -0.05100
C3170       C  0.16706785  0.57777873  0.61948790    -0.05000
C3171       C  0.17090191  0.59351252  0.60149508    -0.23200
C3172       C  0.15490697  0.59555353  0.58343975     0.19000
C3173       C  0.13529709  0.58104304  0.58321477     0.16200
C3174       C  0.13175357  0.56523400  0.60104123    -0.18200
C3175       C  0.11899861  0.58305232  0.56558509    -0.20000
C3176       C  0.12140564  0.60014570  0.54893851    -0.12600
C3177       C  0.14029220  0.61530842  0.54942831     0.04100
C3178       C  0.15751831  0.61246685  0.56619351    -0.24700
H3179       H  0.17941782  0.57679679  0.63346605     0.09100
H3180       H  0.18606070  0.60442517  0.60197870     0.12800
H3181       H  0.11645322  0.55448549  0.60073821     0.12700
H3182       H  0.10395887  0.57195857  0.56514051     0.12400
H3183       H  0.10805691  0.60200328  0.53598861     0.13000
H3184       H  0.17201096  0.62426958  0.56669191     0.14900
C3185       C  0.15032898  0.38173526  0.56409307    -0.05100
C3186       C  0.16745185  0.38066573  0.58127469    -0.05000
C3187       C  0.16922101  0.39777096  0.59799273    -0.23200
C3188       C  0.15384516  0.41621147  0.59788884     0.19000
C3189       C  0.13694431  0.41768111  0.58036218     0.16200
C3190       C  0.13535455  0.40055819  0.56359382    -0.18200
C3191       C  0.12150108  0.43598201  0.58015796    -0.20000
C3192       C  0.12226613  0.45231421  0.59755979    -0.12600
C3193       C  0.13851705  0.45074336  0.61555143     0.04100
C3194       C  0.15462985  0.43283741  0.61533062    -0.24700
H3195       H  0.17930540  0.36640994  0.58202772     0.09100
H3196       H  0.18234527  0.39635729  0.61122232     0.12800
H3197       H  0.12209716  0.40168228  0.55045477     0.12700
H3198       H  0.10850077  0.43741542  0.56680153     0.12400
H3199       H  0.10967830  0.46593765  0.59716378     0.13000
H3200       H  0.16721560  0.43137105  0.62908030     0.14900
C3201       C  0.27071558  0.48511636  0.78586996    -0.05100
C3202       C  0.26200299  0.46359925  0.77884460    -0.05000
C3203       C  0.24500035  0.46196526  0.76157242    -0.23200
C3204       C  0.23620760  0.48181245  0.75081053     0.19000
C3205       C  0.24539088  0.50343480  0.75711027     0.16200
C3206       C  0.26246864  0.50495723  0.77444300    -0.18200
C3207       C  0.23690209  0.52332941  0.74642162    -0.20000
C3208       C  0.21904465  0.52200455  0.73025410    -0.12600
C3209       C  0.20895874  0.50075678  0.72421207     0.04100
C3210       C  0.21804082  0.48055119  0.73439325    -0.24700
H3211       H  0.26784190  0.44797901  0.78720015     0.09100
H3212       H  0.23836717  0.44515758  0.75699770     0.12800
H3213       H  0.26886404  0.52173474  0.77946889     0.12700
H3214       H  0.24377624  0.54007170  0.75091239     0.12400
H3215       H  0.21271481  0.53791858  0.72289211     0.13000
H3216       H  0.21060451  0.46399848  0.73009207     0.14900
C3217       C  0.03833858  0.51407428  0.67322932    -0.05100
C3218       C  0.02782764  0.51321910  0.65131528    -0.05000
C3219       C  0.00374538  0.51316527  0.64885387    -0.23200
C3220       C  0.98934972  0.51383499  0.66824117     0.19000
C3221       C  0.99956951  0.51477850  0.69035657     0.16200
C3222       C  0.02384413  0.51499297  0.69272288    -0.18200
C3223       C  0.98530559  0.51521361  0.70978958    -0.20000
C3224       C  0.96129193  0.51452233  0.70744053    -0.12600
C3225       C  0.95062314  0.51353208  0.68558440     0.04100
C3226       C  0.96499499  0.51334802  0.66594609    -0.24700
H3227       H  0.03826267  0.51238290  0.63594217     0.09100
H3228       H  0.99637098  0.51238597  0.63170246     0.12800
H3229       H  0.03141398  0.51548528  0.70981007     0.12700
H3230       H  0.99273395  0.51593202  0.72692803     0.12400
H3231       H  0.95100587  0.51478429  0.72294490     0.13000
H3232       H  0.95729123  0.51250319  0.64893979     0.14900
C3233       C  0.04915686  0.37231212  0.74589448    -0.05100
C3234       C  0.07221735  0.36593596  0.74908835    -0.05000
C3235       C  0.08967022  0.37840242  0.73821312    -0.23200
C3236       C  0.08395467  0.39770359  0.72489861     0.19000
C3237       C  0.06061022  0.40164632  0.71892775     0.16200
C3238       C  0.04337573  0.38776048  0.72835450    -0.18200
C3239       C  0.05450275  0.42153024  0.70683390    -0.20000
C3240       C  0.07078648  0.43871998  0.70341508    -0.12600
C3241       C  0.09348361  0.43575218  0.71108876     0.04100
C3242       C  0.10054441  0.41463719  0.72016731    -0.24700
H3243       H  0.07680909  0.35356051  0.76235008     0.09100
H3244       H  0.10741200  0.37482024  0.74262335     0.12800
H3245       H  0.02551088  0.39242826  0.72578402     0.12700
H3246       H  0.03679899  0.42470715  0.70194077     0.12400
H3247       H  0.06548840  0.45477881  0.69548181     0.13000
H3248       H  0.11823609  0.41237515  0.72563454     0.14900
C3249       C  0.92297651  0.39498883  0.78924315    -0.05100
C3250       C  0.91094424  0.41108265  0.80243237    -0.05000
C3251       C  0.89373646  0.42431466  0.79232725    -0.23200
C3252       C  0.88855188  0.42165180  0.76893946     0.19000
C3253       C  0.89850076  0.40350374  0.75642663     0.16200
C3254       C  0.91539822  0.38995741  0.76684401    -0.18200
C3255       C  0.89325958  0.40084377  0.73301447    -0.20000
C3256       C  0.88057197  0.41764301  0.72149278    -0.12600
C3257       C  0.87303528  0.43709858  0.73335880     0.04100
C3258       C  0.87563425  0.43825004  0.75731465    -0.24700
H3259       H  0.91609396  0.41485294  0.81996411     0.09100
H3260       H  0.88587695  0.43783461  0.80226229     0.12800
H3261       H  0.92420520  0.37715641  0.75673640     0.12700
H3262       H  0.90047813  0.38684244  0.72325922     0.12400
H3263       H  0.87850449  0.41647236  0.70297555     0.13000
H3264       H  0.86947849  0.45315356  0.76649155     0.14900
C3265       C  0.96079228  0.35329955  0.89323382    -0.05100
C3266       C  0.96298220  0.36897463  0.91140031    -0.05000
C3267       C  0.94660530  0.36959369  0.92886390    -0.23200
C3268       C  0.92741321  0.35494869  0.92808338     0.19000
C3269       C  0.92574394  0.33815718  0.91064848     0.16200
C3270       C  0.94276289  0.33711231  0.89353848    -0.18200
C3271       C  0.90628269  0.32382810  0.90972680    -0.20000
C3272       C  0.88807162  0.32702465  0.92502529    -0.12600
C3273       C  0.88905795  0.34451320  0.94161820     0.04100
C3274       C  0.90922118  0.35784143  0.94355430    -0.24700
H3275       H  0.97678624  0.38157332  0.91141298     0.09100
H3276       H  0.94824830  0.38244382  0.94219797     0.12800
H3277       H  0.94082758  0.32519907  0.87937448     0.12700
H3278       H  0.90471508  0.31079368  0.89656853     0.12400
H3279       H  0.87283894  0.31637224  0.92325363     0.13000
H3280       H  0.91036157  0.37122657  0.95641056     0.14900
C3281       C  0.07255039  0.35575728  0.86716955    -0.05100
C3282       C  0.09050994  0.37202836  0.86566859    -0.05000
C3283       C  0.10860111  0.37189647  0.88148231    -0.23200
C3284       C  0.10913048  0.35557367  0.89930970     0.19000
C3285       C  0.09172769  0.33855885  0.90069707     0.16200
C3286       C  0.07357783  0.33862418  0.88448223    -0.18200
C3287       C  0.09246395  0.32231694  0.91873594    -0.20000
C3288       C  0.10967772  0.32356681  0.93570859    -0.12600
C3289       C  0.12651491  0.34103367  0.93491087     0.04100
C3290       C  0.12639126  0.35658643  0.91621328    -0.24700
H3291       H  0.09041172  0.38525434  0.85242933     0.09100
H3292       H  0.12190073  0.38496611  0.88009432     0.12800
H3293       H  0.05991335  0.32593717  0.88586724     0.12700
H3294       H  0.07936991  0.30904690  0.92008578     0.12400
H3295       H  0.10933656  0.31133629  0.94986904     0.13000
H3296       H  0.13931395  0.37007022  0.91517725     0.14900
C3297       C  0.98796627  0.28716179  0.78022853    -0.05100
C3298       C  0.96726157  0.28411101  0.76789070    -0.05000
C3299       C  0.96462478  0.26659356  0.75161566    -0.23200
C3300       C  0.98281206  0.25171390  0.74676232     0.19000
C3301       C  0.00351163  0.25383680  0.75947704     0.16200
C3302       C  0.00590696  0.27135806  0.77637593    -0.18200
C3303       C  0.02180655  0.23914729  0.75413159    -0.20000
C3304       C  0.02002053  0.22344181  0.73583503    -0.12600
C3305       C  0.99978014  0.22163282  0.72248896     0.04100
C3306       C  0.98097628  0.23556235  0.72864490    -0.24700
H3307       H  0.95322833  0.29600081  0.77023389     0.09100
H3308       H  0.94859746  0.26531231  0.74211835     0.12800
H3309       H  0.02216865  0.27366592  0.78525863     0.12700
H3310       H  0.03785655  0.24034965  0.76358991     0.12400
H3311       H  0.03484096  0.21313141  0.73169105     0.13000
H3312       H  0.96527742  0.23475356  0.71855342     0.14900
C3313       C  0.12054476  0.56824690  0.74170443    -0.05100
C3314       C  0.11982658  0.56526718  0.76566142    -0.05000
C3315       C  0.11060106  0.58239038  0.77944176    -0.23200
C3316       C  0.10078269  0.60189461  0.76914354     0.19000
C3317       C  0.10253026  0.60541929  0.74505094     0.16200
C3318       C  0.11335725  0.58896115  0.73162523    -0.18200
C3319       C  0.09092637  0.62374634  0.73445146    -0.20000
C3320       C  0.07539729  0.63659029  0.74716576    -0.12600
C3321       C  0.07261385  0.63209977  0.77072741     0.04100
C3322       C  0.08665711  0.61614613  0.78201722    -0.24700
H3323       H  0.12547660  0.54932677  0.77354127     0.09100
H3324       H  0.10931372  0.57944462  0.79785739     0.12800
H3325       H  0.11365052  0.59101274  0.71302491     0.12700
H3326       H  0.09201949  0.62656608  0.71600323     0.12400
H3327       H  0.06429159  0.64870087  0.73834364     0.13000
H3328       H  0.08390807  0.61243650  0.80016396     0.14900
C3329       C  0.93864822  0.62646799  0.75524889    -0.05100
C3330       C  0.94184186  0.62226598  0.73176881    -0.05000
C3331       C  0.92480926  0.61081356  0.71930237    -0.23200
C3332       C  0.90525371  0.60232929  0.73069893     0.19000
C3333       C  0.90165961  0.60739233  0.75420557     0.16200
C3334       C  0.91794804  0.62042814  0.76600851    -0.18200
C3335       C  0.88329799  0.59715763  0.76619239    -0.20000
C3336       C  0.86996411  0.58028161  0.75554257    -0.12600
C3337       C  0.87404765  0.57481619  0.73252524     0.04100
C3338       C  0.89067939  0.58676859  0.71975610    -0.24700
H3339       H  0.95783778  0.62695895  0.72341619     0.09100
H3340       H  0.92779125  0.60694015  0.70132787     0.12800
H3341       H  0.91578826  0.62341775  0.78430836     0.12700
H3342       H  0.88051315  0.60076573  0.78425638     0.12400
H3343       H  0.85723817  0.57082858  0.76544064     0.13000
H3344       H  0.89398867  0.58193685  0.70204906     0.14900
C3345       C  0.11299025  0.65598576  0.94481987    -0.05100
C3346       C  0.11595151  0.67451695  0.92945020    -0.05000
C3347       C  0.09977433  0.67856321  0.91195479    -0.23200
C3348       C  0.08033170  0.66427872  0.90983937     0.19000
C3349       C  0.07656344  0.64667211  0.92637241     0.16200
C3350       C  0.09293331  0.64258612  0.94362608    -0.18200
C3351       C  0.05702867  0.63266585  0.92477455    -0.20000
C3352       C  0.04217714  0.63489163  0.90604939    -0.12600
C3353       C  0.04658272  0.65111993  0.88844868     0.04100
C3354       C  0.06523062  0.66646718  0.89094492    -0.24700
H3355       H  0.13133655  0.68507792  0.93023004     0.09100
H3356       H  0.10287224  0.69231536  0.89963226     0.12800
H3357       H  0.09046683  0.62846373  0.95570653     0.12700
H3358       H  0.05370120  0.61936497  0.93753794     0.12400
H3359       H  0.02771920  0.62312291  0.90490587     0.13000
H3360       H  0.06869165  0.67923173  0.87767802     0.14900
C3361       C  0.88094014  0.64512468  0.94164177    -0.05100
C3362       C  0.90124760  0.63302883  0.94661445    -0.05000
C3363       C  0.91925024  0.63260573  0.93094246    -0.23200
C3364       C  0.91733528  0.64417274  0.90983781     0.19000
C3365       C  0.89743260  0.65712843  0.90478916     0.16200
C3366       C  0.87932931  0.65769612  0.92086211    -0.18200
C3367       C  0.89586107  0.66872538  0.88352047    -0.20000
C3368       C  0.91355822  0.66699422  0.86729351    -0.12600
C3369       C  0.93303267  0.65353736  0.87203213     0.04100
C3370       C  0.93488104  0.64248452  0.89353779    -0.24700
H3371       H  0.90312574  0.62349643  0.96261691     0.09100
H3372       H  0.93449020  0.62278921  0.93514379     0.12800
H3373       H  0.86378362  0.66710151  0.91684928     0.12700
H3374       H  0.88081949  0.67881730  0.87929531     0.12400
H3375       H  0.91176710  0.67573709  0.85084555     0.13000
H3376       H  0.94993482  0.63229389  0.89755526     0.14900
C3377       C  0.98899714  0.78602259  0.71460086    -0.05100
C3378       C  0.96733187  0.77701264  0.72059513    -0.05000
C3379       C  0.96497007  0.76077830  0.73849833    -0.23200
C3380       C  0.98434493  0.75270026  0.75055939     0.19000
C3381       C  0.00618783  0.76205604  0.74519028     0.16200
C3382       C  0.00837904  0.77875541  0.72735372    -0.18200
C3383       C  0.02557136  0.75372585  0.75703653    -0.20000
C3384       C  0.02352981  0.73574201  0.77324697    -0.12600
C3385       C  0.00204378  0.72556212  0.77821325     0.04100
C3386       C  0.98238114  0.73469500  0.76706738    -0.24700
H3387       H  0.95224702  0.78194504  0.71078242     0.09100
H3388       H  0.94805296  0.75385660  0.74228249     0.12800
H3389       H  0.02526180  0.78510356  0.72253574     0.12700
H3390       H  0.04248751  0.76064751  0.75325180     0.12400
H3391       H  0.03900946  0.72925146  0.78133400     0.13000
H3392       H  0.96563821  0.72715482  0.77046702     0.14900
C3393       C  0.00114774  0.54943530  0.82397183    -0.05100
C3394       C  0.99270895  0.53948865  0.84455460    -0.05000
C3395       C  0.99261080  0.51553197  0.84826321    -0.23200
C3396       C  0.00127477  0.50043540  0.83167276     0.19000
C3397       C  0.01034744  0.50986105  0.81107563     0.16200
C3398       C  0.01000976  0.53418576  0.80719484    -0.18200
C3399       C  0.01963248  0.49468969  0.79481515    -0.20000
C3400       C  0.01985956  0.47070855  0.79882819    -0.12600
C3401       C  0.01035655  0.46087135  0.81898757     0.04100
C3402       C  0.00098251  0.47614058  0.83534973    -0.24700
H3403       H  0.98582948  0.55031339  0.85792076     0.09100
H3404       H  0.98571176  0.50879471  0.86428023     0.12800
H3405       H  0.01682870  0.54119712  0.79125754     0.12700
H3406       H  0.02677541  0.50137437  0.77888411     0.12400
H3407       H  0.02702520  0.45971651  0.78574879     0.13000
H3408       H  0.99360839  0.46914439  0.85104539     0.14900
loop_ 
_geom_bond_atom_site_label_1 
_geom_bond_atom_site_label_2 
_geom_bond_distance 
_geom_bond_site_symmetry_2 
_ccdc_geom_bond_type 
Zn1           O5   1.936       .  S
Zn1           O6   2.015       .  S
Zn1          O10   1.993   1_655  S
Zn1          O17   2.088       .  S
Zn2           O5   1.951       .  S
Zn2           O7   2.050       .  S
Zn2           O9   2.026       .  S
Zn2          O13   1.960       .  S
Zn3           O5   1.962   1_455  S
Zn3           O8   2.046       .  S
Zn3          O11   2.077       .  S
Zn3          O14   1.996       .  S
Zn4           O5   1.953   1_455  S
Zn4          O12   1.994       .  S
Zn4          O15   2.012   1_455  S
Zn4          O16   2.113       .  S
O6           C18   1.277       .  A
O7           C19   1.275   1_655  A
O8           C20   1.280       .  A
O9           C18   1.277       .  A
O10          C20   1.275       .  A
O11          C19   1.280       .  A
O12          C21   1.274       .  A
O13          C22   1.269       .  A
O14          C21   1.271       .  A
O15          C22   1.276       .  A
O16          C23   1.281       .  A
O17          C23   1.281   1_655  A
C18        C3369   1.481       .  S
C19        C3385   1.509       .  S
C20        C3353   1.482       .  S
C21        C3321   1.450       .  S
C22        C3329   1.452       .  S
C23        C3393   1.527       .  S
Zn24         O28   1.938   1_655  S
Zn24         O29   1.999       .  S
Zn24         O33   1.990       .  S
Zn24         O40   2.097       .  S
Zn25         O28   1.967       .  S
Zn25         O30   2.140       .  S
Zn25         O32   2.061   1_455  S
Zn25         O36   2.061       .  S
Zn26         O28   1.932   1_655  S
Zn26         O31   1.998       .  S
Zn26         O34   2.004       .  S
Zn26         O37   2.012   1_655  S
Zn27         O28   1.906       .  S
Zn27         O35   1.969       .  S
Zn27         O38   2.006       .  S
Zn27         O39   2.102       .  S
O29          C41   1.277       .  A
O30          C42   1.286   1_455  A
O31          C43   1.275       .  A
O32          C41   1.283       .  A
O33          C43   1.273       .  A
O34          C42   1.271       .  A
O35          C44   1.271       .  A
O36          C45   1.282       .  A
O37          C44   1.275       .  A
O38          C45   1.278       .  A
O39          C46   1.281       .  A
O40          C46   1.279   1_655  A
C41        C3265   1.473       .  S
C42        C3297   1.506       .  S
C43        C3249   1.470       .  S
C44        C3233   1.458       .  S
C45        C3281   1.488       .  S
C46        C3401   1.523       .  S
Zn47         O51   1.914       .  S
Zn47         O52   1.984       .  S
Zn47         O56   2.017       .  S
Zn47         O63   2.031       .  S
Zn48         O51   1.924       .  S
Zn48         O53   2.060       .  S
Zn48         O55   2.014       .  S
Zn48         O59   1.976       .  S
Zn49         O51   1.919       .  S
Zn49         O54   1.995       .  S
Zn49         O57   2.072       .  S
Zn49         O60   1.995       .  S
Zn50         O51   1.950       .  S
Zn50         O58   2.038       .  S
Zn50         O61   1.989       .  S
Zn50         O62   2.089       .  S
O52          C64   1.272       .  A
O53          C65   1.276       .  A
O54          C66   1.276       .  A
O55          C64   1.277       .  A
O56          C66   1.276       .  A
O57          C65   1.278       .  A
O58          C67   1.281       .  A
O59          C68   1.273       .  A
O60          C67   1.275       .  A
O61          C68   1.270       .  A
O62          C69   1.281       .  A
O63          C69   1.277       .  A
C64        C3313   1.458       .  S
C65        C3217   1.510       .  S
C66        C3169   1.476       .  S
C67        C3193   1.481       .  S
C68        C3241   1.452       .  S
C69        C3209   1.506       .  S
Zn70         O74   1.931       .  S
Zn70         O75   1.992       .  S
Zn70         O79   2.028       .  S
Zn70         O86   2.060       .  S
Zn71         O74   1.918       .  S
Zn71         O76   2.053       .  S
Zn71         O78   2.005       .  S
Zn71         O82   2.008       .  S
Zn72         O74   1.936       .  S
Zn72         O77   1.999       .  S
Zn72         O80   2.095       .  S
Zn72         O83   2.033       .  S
Zn73         O74   1.918       .  S
Zn73         O81   1.990       .  S
Zn73         O84   1.963       .  S
Zn73         O85   2.027       .  S
O75          C87   1.272       .  A
O76          C88   1.278       .  A
O77          C89   1.276       .  A
O78          C87   1.276       .  A
O79          C89   1.279       .  A
O80          C88   1.282       .  A
O81          C90   1.274       .  A
O82          C91   1.274       .  A
O83          C90   1.280       .  A
O84          C91   1.267       .  A
O85          C92   1.275       .  A
O86          C92   1.278       .  A
C87        C3257   1.462       .  S
C88        C3225   1.512       .  S
C89        C3145   1.479       .  S
C90        C3129   1.472       .  S
C91        C3337   1.446       .  S
C92        C3153   1.498       .  S
Zn93         O97   1.963   1_545  S
Zn93         O98   2.053       .  S
Zn93        O102   2.003       .  S
Zn93        O109   2.100       .  S
Zn94         O97   1.926       .  S
Zn94         O99   2.091       .  S
Zn94        O101   1.993   1_565  S
Zn94        O105   2.001       .  S
Zn95         O97   1.927   1_545  S
Zn95        O100   1.973       .  S
Zn95        O103   2.055       .  S
Zn95        O106   1.978   1_545  S
Zn96         O97   1.911       .  S
Zn96        O104   1.968       .  S
Zn96        O107   2.020       .  S
Zn96        O108   2.012       .  S
O98         C110   1.284       .  A
O99         C111   1.280   1_565  A
O100        C112   1.273       .  A
O101        C110   1.278       .  A
O102        C112   1.270       .  A
O103        C111   1.275       .  A
O104        C113   1.272       .  A
O105        C114   1.274       .  A
O106        C113   1.271       .  A
O107        C114   1.275       .  A
O108        C115   1.275       .  A
O109        C115   1.282   1_545  A
C110       C3081   1.479       .  S
C111       C3113   1.513   1_545  S
C112       C3025   1.448       .  S
C113       C3041   1.459       .  S
C114       C3057   1.472       .  S
C115       C3089   1.505       .  S
Zn116       O120   1.927       .  S
Zn116       O121   2.029       .  S
Zn116       O125   2.059       .  S
Zn116       O132   2.012   1_565  S
Zn117       O120   1.936       .  S
Zn117       O122   2.009       .  S
Zn117       O124   1.977       .  S
Zn117       O128   2.059       .  S
Zn118       O120   1.942       .  S
Zn118       O123   2.099       .  S
Zn118       O126   2.022       .  S
Zn118       O129   2.017   1_565  S
Zn119       O120   1.934   1_545  S
Zn119       O127   2.020       .  S
Zn119       O130   2.045       .  S
Zn119       O131   1.980       .  S
O121        C133   1.278       .  A
O122        C134   1.277       .  A
O123        C135   1.281       .  A
O124        C133   1.270       .  A
O125        C135   1.279       .  A
O126        C134   1.280       .  A
O127        C136   1.276       .  A
O128        C137   1.277   1_565  A
O129        C136   1.277       .  A
O130        C137   1.277       .  A
O131        C138   1.269       .  A
O132        C138   1.276       .  A
C133       C2961   1.467       .  S
C134       C2993   1.476       .  S
C135       C3105   1.516       .  S
C136       C2977   1.479       .  S
C137       C3009   1.502       .  S
C138       C2945   1.455       .  S
Zn139       O143   1.952       .  S
Zn139       O144   2.011       .  S
Zn139       O148   2.110       .  S
Zn139       O155   2.010       .  S
Zn140       O143   1.940       .  S
Zn140       O145   2.010       .  S
Zn140       O147   1.972       .  S
Zn140       O151   2.039       .  S
Zn141       O143   1.941       .  S
Zn141       O146   2.086       .  S
Zn141       O149   2.013       .  S
Zn141       O152   2.000       .  S
Zn142       O143   1.974       .  S
Zn142       O150   2.060       .  S
Zn142       O153   2.112       .  S
Zn142       O154   1.983       .  S
O144        C156   1.276       .  A
O145        C157   1.275       .  A
O146        C158   1.280       .  A
O147        C156   1.270       .  A
O148        C158   1.280       .  A
O149        C157   1.277       .  A
O150        C159   1.283       .  A
O151        C160   1.275       .  A
O152        C159   1.276       .  A
O153        C160   1.282       .  A
O154        C161   1.270       .  A
O155        C161   1.276       .  A
C156       C3033   1.457       .  S
C157       C2881   1.478       .  S
C158       C2929   1.520       .  S
C159       C2897   1.487       .  S
C160       C2921   1.516       .  S
C161       C2953   1.452       .  S
Zn162       O166   1.931       .  S
Zn162       O167   2.019       .  S
Zn162       O171   2.044       .  S
Zn162       O178   2.100       .  S
Zn163       O166   1.895       .  S
Zn163       O168   2.098       .  S
Zn163       O170   2.030       .  S
Zn163       O174   1.982       .  S
Zn164       O166   1.913       .  S
Zn164       O169   1.990       .  S
Zn164       O172   2.085       .  S
Zn164       O175   1.980       .  S
Zn165       O166   1.926       .  S
Zn165       O173   2.020       .  S
Zn165       O176   2.000       .  S
Zn165       O177   2.033       .  S
O167        C179   1.276       .  A
O168        C180   1.282       .  A
O169        C181   1.277       .  A
O170        C179   1.279       .  A
O171        C181   1.283       .  A
O172        C180   1.278       .  A
O173        C182   1.277       .  A
O174        C183   1.272       .  A
O175        C182   1.271       .  A
O176        C183   1.275       .  A
O177        C184   1.275       .  A
O178        C184   1.283       .  A
C179       C2833   1.485       .  S
C180       C2937   1.521       .  S
C181       C2849   1.467       .  S
C182       C2969   1.473       .  S
C183       C3049   1.444       .  S
C184       C2865   1.500       .  S
Zn185       O189   1.938       .  S
Zn185       O190   1.986       .  S
Zn185       O194   2.097       .  S
Zn185       O201   2.033       .  S
Zn186       O189   1.916       .  S
Zn186       O191   2.014   1_554  S
Zn186       O193   2.007       .  S
Zn186       O197   2.068   1_554  S
Zn187       O189   1.910   1_556  S
Zn187       O192   2.039       .  S
Zn187       O195   1.954       .  S
Zn187       O198   2.037       .  S
Zn188       O189   1.916       .  S
Zn188       O196   1.984   1_554  S
Zn188       O199   2.067       .  S
Zn188       O200   1.966       .  S
O190        C202   1.270       .  A
O191        C203   1.277       .  A
O192        C204   1.278   1_556  A
O193        C202   1.276       .  A
O194        C204   1.281       .  A
O195        C203   1.270       .  A
O196        C205   1.273       .  A
O197        C206   1.278       .  A
O198        C205   1.279       .  A
O199        C206   1.276   1_554  A
O200        C207   1.274       .  A
O201        C207   1.281       .  A
C202       C2753   1.450       .  S
C203       C2769   1.449       .  S
C204       C2801   1.507   1_554  S
C205       C3001   1.476       .  S
C206       C2817   1.507       .  S
C207       C2793   1.470       .  S
Zn208       O212   1.931   1_554  S
Zn208       O213   2.078       .  S
Zn208       O217   1.976       .  S
Zn208       O224   1.975       .  S
Zn209       O212   1.899       .  S
Zn209       O214   1.976       .  S
Zn209       O216   2.056       .  S
Zn209       O220   1.954       .  S
Zn210       O212   1.962       .  S
Zn210       O215   2.053   1_556  S
Zn210       O218   2.046       .  S
Zn210       O221   2.102       .  S
Zn211       O212   1.939   1_554  S
Zn211       O219   2.024       .  S
Zn211       O222   2.023   1_554  S
Zn211       O223   1.994       .  S
O213        C225   1.277   1_554  A
O214        C226   1.273       .  A
O215        C227   1.279       .  A
O216        C225   1.275       .  A
O217        C227   1.274       .  A
O218        C226   1.279       .  A
O219        C228   1.273   1_554  A
O220        C229   1.270       .  A
O221        C228   1.284       .  A
O222        C229   1.275       .  A
O223        C230   1.274       .  A
O224        C230   1.270       .  A
C225       C2825   1.507   1_556  S
C226       C3065   1.472       .  S
C227       C2721   1.465       .  S
C228       C2737   1.497       .  S
C229       C2705   1.459       .  S
C230       C2689   1.466       .  S
Zn231       O235   1.922       .  S
Zn231       O236   2.055       .  S
Zn231       O240   2.017       .  S
Zn231       O247   1.974       .  S
Zn232       O235   1.925       .  S
Zn232       O237   2.000       .  S
Zn232       O239   2.046       .  S
Zn232       O243   1.962       .  S
Zn233       O235   1.925       .  S
Zn233       O238   1.990       .  S
Zn233       O241   1.996       .  S
Zn233       O244   2.078       .  S
Zn234       O235   1.908       .  S
Zn234       O242   2.070       .  S
Zn234       O245   2.007       .  S
Zn234       O246   2.011       .  S
O236        C248   1.277       .  A
O237        C249   1.276       .  A
O238        C250   1.276       .  A
O239        C248   1.275       .  A
O240        C250   1.279       .  A
O241        C249   1.275       .  A
O242        C251   1.279       .  A
O243        C252   1.268       .  A
O244        C251   1.278       .  A
O245        C252   1.277       .  A
O246        C253   1.277       .  A
O247        C253   1.271       .  A
C248       C2657   1.502       .  S
C249       C2625   1.471       .  S
C250       C2641   1.471       .  S
C251       C2681   1.513       .  S
C252       C2697   1.453       .  S
C253       C2761   1.463       .  S
Zn254       O258   1.909       .  S
Zn254       O259   1.968       .  S
Zn254       O263   2.057       .  S
Zn254       O270   1.970       .  S
Zn255       O258   1.924       .  S
Zn255       O260   1.973       .  S
Zn255       O262   2.034       .  S
Zn255       O266   2.028       .  S
Zn256       O258   1.925       .  S
Zn256       O261   2.081       .  S
Zn256       O264   2.001       .  S
Zn256       O267   1.981       .  S
Zn257       O258   1.958       .  S
Zn257       O265   1.991       .  S
Zn257       O268   2.095       .  S
Zn257       O269   2.047       .  S
O259        C271   1.272       .  A
O260        C272   1.271       .  A
O261        C273   1.277       .  A
O262        C271   1.277       .  A
O263        C273   1.276       .  A
O264        C272   1.276       .  A
O265        C274   1.270       .  A
O266        C275   1.277       .  A
O267        C274   1.273       .  A
O268        C275   1.281       .  A
O269        C276   1.282       .  A
O270        C276   1.273       .  A
C271       C2609   1.475       .  S
C272       C2777   1.448       .  S
C273       C2673   1.512       .  S
C274       C2713   1.449       .  S
C275       C2873   1.506       .  S
C276       C2593   1.471       .  S
Zn277       O281   1.938   1_556  S
Zn277       O282   2.077       .  S
Zn277       O286   1.966       .  S
Zn277       O293   2.051       .  S
Zn278       O281   1.917       .  S
Zn278       O283   1.973       .  S
Zn278       O285   2.049       .  S
Zn278       O289   2.009       .  S
Zn279       O281   1.920       .  S
Zn279       O284   2.007   1_554  S
Zn279       O287   2.009       .  S
Zn279       O290   2.070   1_554  S
Zn280       O281   1.929   1_556  S
Zn280       O288   2.113       .  S
Zn280       O291   2.021   1_556  S
Zn280       O292   1.998       .  S
O282        C294   1.279   1_556  A
O283        C295   1.267       .  A
O284        C296   1.276       .  A
O285        C294   1.278       .  A
O286        C296   1.272       .  A
O287        C295   1.275       .  A
O288        C297   1.282       .  A
O289        C298   1.278       .  A
O290        C297   1.279       .  A
O291        C298   1.280       .  A
O292        C299   1.277       .  A
O293        C299   1.281       .  A
C294       C2745   1.507       .  S
C295       C2537   1.449       .  S
C296       C2545   1.451       .  S
C297       C2577   1.522       .  S
C298       C2561   1.477       .  S
C299       C3361   1.481       .  S
Zn300       O304   1.969   1_554  S
Zn300       O305   1.986       .  S
Zn300       O309   2.073       .  S
Zn300       O316   2.111       .  S
Zn301       O304   1.936       .  S
Zn301       O306   2.091       .  S
Zn301       O308   1.998   1_556  S
Zn301       O312   2.009       .  S
Zn302       O304   1.923       .  S
Zn302       O307   1.982   1_556  S
Zn302       O310   2.095       .  S
Zn302       O313   2.030       .  S
Zn303       O304   1.919       .  S
Zn303       O311   2.019       .  S
Zn303       O314   1.978       .  S
Zn303       O315   2.043       .  S
O305        C317   1.272       .  A
O306        C318   1.279       .  A
O307        C319   1.275       .  A
O308        C317   1.275       .  A
O309        C319   1.283       .  A
O310        C318   1.282       .  A
O311        C320   1.278       .  A
O312        C321   1.275       .  A
O313        C320   1.279       .  A
O314        C321   1.269       .  A
O315        C322   1.277       .  A
O316        C322   1.282   1_554  A
C317       C2465   1.454       .  S
C318       C2585   1.522       .  S
C319       C2497   1.486       .  S
C320       C3273   1.484       .  S
C321       C2489   1.452       .  S
C322       C2521   1.513       .  S
Zn323       O327   1.956       .  S
Zn323       O328   2.014       .  S
Zn323       O332   1.976       .  S
Zn323       O339   2.058       .  S
Zn324       O327   1.923       .  S
Zn324       O329   2.066       .  S
Zn324       O331   1.977       .  S
Zn324       O335   1.997       .  S
Zn325       O327   1.941       .  S
Zn325       O330   2.011       .  S
Zn325       O333   2.103       .  S
Zn325       O336   2.009       .  S
Zn326       O327   1.935       .  S
Zn326       O334   1.981       .  S
Zn326       O337   2.034       .  S
Zn326       O338   2.046       .  S
O328        C340   1.276       .  A
O329        C341   1.277       .  A
O330        C342   1.277       .  A
O331        C340   1.274       .  A
O332        C342   1.269       .  A
O333        C341   1.280       .  A
O334        C343   1.271       .  A
O335        C344   1.275       .  A
O336        C343   1.276       .  A
O337        C344   1.278       .  A
O338        C345   1.277       .  A
O339        C345   1.276       .  A
C340       C2633   1.471       .  S
C341       C2449   1.519       .  S
C342       C2529   1.458       .  S
C343       C2473   1.449       .  S
C344       C2417   1.481       .  S
C345       C2433   1.502       .  S
Zn346       O350   1.918       .  S
Zn346       O351   2.009       .  S
Zn346       O355   2.057       .  S
Zn346       O362   2.016       .  S
Zn347       O350   1.937       .  S
Zn347       O352   2.016       .  S
Zn347       O354   1.983       .  S
Zn347       O358   2.083       .  S
Zn348       O350   1.942       .  S
Zn348       O353   2.117       .  S
Zn348       O356   2.006       .  S
Zn348       O359   2.036       .  S
Zn349       O350   1.900       .  S
Zn349       O357   1.975       .  S
Zn349       O360   2.005       .  S
Zn349       O361   1.940       .  S
O351        C363   1.277       .  A
O352        C364   1.280       .  A
O353        C365   1.284       .  A
O354        C363   1.270       .  A
O355        C365   1.278       .  A
O356        C364   1.279       .  A
O357        C366   1.271       .  A
O358        C367   1.279       .  A
O359        C366   1.279       .  A
O360        C367   1.272       .  A
O361        C368   1.266       .  A
O362        C368   1.275       .  A
C363       C2481   1.454       .  S
C364       C2401   1.474       .  S
C365       C2457   1.520       .  S
C366       C2601   1.470       .  S
C367       C3161   1.499       .  S
C368       C2553   1.445       .  S
Zn369       O373   1.918   1_455  S
Zn369       O374   1.959       .  S
Zn369       O378   1.985       .  S
Zn369       O385   2.064       .  S
Zn370       O373   1.927       .  S
Zn370       O375   2.022       .  S
Zn370       O377   2.008   1_655  S
Zn370       O381   2.007       .  S
Zn371       O373   1.977       .  S
Zn371       O376   2.045   1_655  S
Zn371       O379   2.106       .  S
Zn371       O382   2.050       .  S
Zn372       O373   1.935       .  S
Zn372       O380   1.979       .  S
Zn372       O383   1.986       .  S
Zn372       O384   2.092       .  S
O374        C386   1.271       .  A
O375        C387   1.272       .  A
O376        C388   1.277       .  A
O377        C386   1.276       .  A
O378        C388   1.273       .  A
O379        C387   1.282       .  A
O380        C389   1.276       .  A
O381        C390   1.276       .  A
O382        C389   1.280       .  A
O383        C390   1.272       .  A
O384        C391   1.277   1_655  A
O385        C391   1.276       .  A
C386       C2321   1.466       .  S
C387       C3377   1.494       .  S
C388       C2369   1.467       .  S
C389       C2353   1.467       .  S
C390       C2337   1.471       .  S
C391       C2385   1.518       .  S
Zn392       O396   1.920       .  S
Zn392       O397   1.966       .  S
Zn392       O401   2.091       .  S
Zn392       O408   1.979       .  S
Zn393       O396   1.926       .  S
Zn393       O398   2.014   1_455  S
Zn393       O400   2.015       .  S
Zn393       O404   2.021       .  S
Zn394       O396   1.913   1_655  S
Zn394       O399   2.071       .  S
Zn394       O402   1.953       .  S
Zn394       O405   2.000       .  S
Zn395       O396   1.966       .  S
Zn395       O403   2.030   1_455  S
Zn395       O406   2.107       .  S
Zn395       O407   2.060       .  S
O397        C409   1.270       .  A
O398        C410   1.278       .  A
O399        C411   1.277       .  A
O400        C409   1.278       .  A
O401        C411   1.277   1_455  A
O402        C410   1.271       .  A
O403        C412   1.275       .  A
O404        C413   1.271       .  A
O405        C412   1.275       .  A
O406        C413   1.283       .  A
O407        C414   1.283       .  A
O408        C414   1.276       .  A
C409       C2241   1.466       .  S
C410       C2257   1.461       .  S
C411       C2393   1.518       .  S
C412       C2289   1.468       .  S
C413       C2305   1.497       .  S
C414       C2273   1.470       .  S
Zn415       O419   1.920       .  S
Zn415       O420   2.094       .  S
Zn415       O424   1.982       .  S
Zn415       O431   1.962       .  S
Zn416       O419   1.909       .  S
Zn416       O421   1.963       .  S
Zn416       O423   2.072       .  S
Zn416       O427   1.947       .  S
Zn417       O419   1.969       .  S
Zn417       O422   2.034       .  S
Zn417       O425   2.053       .  S
Zn417       O428   2.114       .  S
Zn418       O419   1.921       .  S
Zn418       O426   2.027       .  S
Zn418       O429   2.020       .  S
Zn418       O430   2.011       .  S
O420        C432   1.278       .  A
O421        C433   1.273       .  A
O422        C434   1.277       .  A
O423        C432   1.274       .  A
O424        C434   1.275       .  A
O425        C433   1.281       .  A
O426        C435   1.272       .  A
O427        C436   1.270       .  A
O428        C435   1.283       .  A
O429        C436   1.278       .  A
O430        C437   1.279       .  A
O431        C437   1.271       .  A
C432       C2225   1.520       .  S
C433       C3177   1.466       .  S
C434       C2193   1.468       .  S
C435       C2209   1.499       .  S
C436       C2329   1.463       .  S
C437       C2249   1.466       .  S
Zn438       O442   1.921       .  S
Zn438       O443   1.978       .  S
Zn438       O447   2.073       .  S
Zn438       O454   1.983       .  S
Zn439       O442   1.922       .  S
Zn439       O444   2.005       .  S
Zn439       O446   2.007       .  S
Zn439       O450   2.012       .  S
Zn440       O442   1.926       .  S
Zn440       O445   2.091       .  S
Zn440       O448   1.956       .  S
Zn440       O451   1.974       .  S
Zn441       O442   1.979       .  S
Zn441       O449   2.058       .  S
Zn441       O452   2.127       .  S
Zn441       O453   2.052       .  S
O443        C455   1.271       .  A
O444        C456   1.276       .  A
O445        C457   1.276       .  A
O446        C455   1.276       .  A
O447        C457   1.277       .  A
O448        C456   1.270       .  A
O449        C458   1.280       .  A
O450        C459   1.271       .  A
O451        C458   1.275       .  A
O452        C459   1.284       .  A
O453        C460   1.280       .  A
O454        C460   1.275       .  A
C455       C2345   1.470       .  S
C456       C2265   1.463       .  S
C457       C2233   1.519       .  S
C458       C2161   1.480       .  S
C459       C2185   1.500       .  S
C460       C3121   1.462       .  S
Zn461       O465   1.959   1_545  S
Zn461       O466   2.088       .  S
Zn461       O470   2.033       .  S
Zn461       O477   2.035   1_545  S
Zn462       O465   1.946       .  S
Zn462       O467   2.015   1_565  S
Zn462       O469   2.017       .  S
Zn462       O473   2.009       .  S
Zn463       O465   1.929   1_545  S
Zn463       O468   2.025       .  S
Zn463       O471   1.953       .  S
Zn463       O474   2.083       .  S
Zn464       O465   1.924       .  S
Zn464       O472   2.071       .  S
Zn464       O475   1.980       .  S
Zn464       O476   1.993       .  S
O466        C478   1.280   1_545  A
O467        C479   1.275       .  A
O468        C480   1.278       .  A
O469        C478   1.272       .  A
O470        C480   1.277       .  A
O471        C479   1.272       .  A
O472        C481   1.277       .  A
O473        C482   1.276       .  A
O474        C481   1.277   1_545  A
O475        C482   1.270       .  A
O476        C483   1.278       .  A
O477        C483   1.278       .  A
C478       C3097   1.497       .  S
C479       C2105   1.463       .  S
C480       C2137   1.487       .  S
C481       C2145   1.515       .  S
C482       C2113   1.463       .  S
C483       C2361   1.469       .  S
Zn484       O488   1.912       .  S
Zn484       O489   1.969       .  S
Zn484       O493   2.064       .  S
Zn484       O500   1.962       .  S
Zn485       O488   1.986       .  S
Zn485       O490   2.067   1_545  S
Zn485       O492   2.067       .  S
Zn485       O496   2.137       .  S
Zn486       O488   1.934   1_565  S
Zn486       O491   2.090       .  S
Zn486       O494   1.979       .  S
Zn486       O497   1.977       .  S
Zn487       O488   1.934       .  S
Zn487       O495   1.994   1_545  S
Zn487       O498   2.005   1_545  S
Zn487       O499   2.014       .  S
O489        C501   1.273       .  A
O490        C502   1.282       .  A
O491        C503   1.277   1_565  A
O492        C501   1.281       .  A
O493        C503   1.276       .  A
O494        C502   1.274       .  A
O495        C504   1.275       .  A
O496        C505   1.287       .  A
O497        C504   1.272       .  A
O498        C505   1.271   1_565  A
O499        C506   1.275       .  A
O500        C506   1.270       .  A
C501       C2065   1.484       .  S
C502       C2297   1.470       .  S
C503       C2153   1.516       .  S
C504       C2049   1.467       .  S
C505       C2081   1.506       .  S
C506       C2033   1.469       .  S
Zn507       O511   1.918       .  S
Zn507       O512   1.983       .  S
Zn507       O516   2.080       .  S
Zn507       O523   1.988       .  S
Zn508       O511   1.946       .  S
Zn508       O513   1.962       .  S
Zn508       O515   2.039       .  S
Zn508       O519   2.088       .  S
Zn509       O511   1.933       .  S
Zn509       O514   2.091       .  S
Zn509       O517   2.000       .  S
Zn509       O520   2.017       .  S
Zn510       O511   1.934       .  S
Zn510       O518   1.966       .  S
Zn510       O521   2.035       .  S
Zn510       O522   2.014       .  S
O512        C524   1.274       .  A
O513        C525   1.267       .  A
O514        C526   1.278       .  A
O515        C524   1.281       .  A
O516        C526   1.279       .  A
O517        C525   1.276       .  A
O518        C527   1.268       .  A
O519        C528   1.280       .  A
O520        C527   1.278       .  A
O521        C528   1.275       .  A
O522        C529   1.275       .  A
O523        C529   1.276       .  A
C524       C2889   1.477       .  S
C525       C2097   1.441       .  S
C526       C2017   1.518       .  S
C527       C2041   1.446       .  S
C528       C2001   1.508       .  S
C529       C1985   1.473       .  S
Zn530       O534   1.966       .  S
Zn530       O535   2.134       .  S
Zn530       O539   2.070       .  S
Zn530       O546   2.060       .  S
Zn531       O534   1.938       .  S
Zn531       O536   1.995       .  S
Zn531       O538   2.009       .  S
Zn531       O542   2.019       .  S
Zn532       O534   1.939       .  S
Zn532       O537   1.987       .  S
Zn532       O540   1.984       .  S
Zn532       O543   2.092       .  S
Zn533       O534   1.904       .  S
Zn533       O541   2.077       .  S
Zn533       O544   1.961       .  S
Zn533       O545   1.991       .  S
O535        C547   1.286       .  A
O536        C548   1.276       .  A
O537        C549   1.276       .  A
O538        C547   1.271       .  A
O539        C549   1.284       .  A
O540        C548   1.272       .  A
O541        C550   1.278       .  A
O542        C551   1.275       .  A
O543        C550   1.277       .  A
O544        C551   1.271       .  A
O545        C552   1.276       .  A
O546        C552   1.281       .  A
C547       C2177   1.508       .  S
C548       C2057   1.468       .  S
C549       C1969   1.473       .  S
C550       C2025   1.514       .  S
C551       C2121   1.468       .  S
C552       C2841   1.485       .  S
Zn553       O557   1.924       .  S
Zn553       O558   1.964       .  S
Zn553       O562   1.993       .  S
Zn553       O569   2.094       .  S
Zn554       O557   1.915       .  S
Zn554       O559   2.007       .  S
Zn554       O561   2.008       .  S
Zn554       O565   2.012   1_565  S
Zn555       O557   1.976       .  S
Zn555       O560   2.048       .  S
Zn555       O563   2.147       .  S
Zn555       O566   2.060   1_565  S
Zn556       O557   1.904   1_545  S
Zn556       O564   1.978       .  S
Zn556       O567   1.951       .  S
Zn556       O568   2.076       .  S
O558        C570   1.271       .  A
O559        C571   1.272       .  A
O560        C572   1.279       .  A
O561        C570   1.276       .  A
O562        C572   1.277       .  A
O563        C571   1.286       .  A
O564        C573   1.276       .  A
O565        C574   1.277       .  A
O566        C573   1.282       .  A
O567        C574   1.268       .  A
O568        C575   1.275   1_545  A
O569        C575   1.279       .  A
C570       C1921   1.467       .  S
C571       C2089   1.508       .  S
C572       C2729   1.467       .  S
C573       C1937   1.472       .  S
C574       C1905   1.465       .  S
C575       C1961   1.516       .  S
Zn576       O580   1.956   1_545  S
Zn576       O581   1.976       .  S
Zn576       O585   2.097       .  S
Zn576       O592   2.045       .  S
Zn577       O580   1.923       .  S
Zn577       O582   2.019       .  S
Zn577       O584   2.006   1_565  S
Zn577       O588   2.090       .  S
Zn578       O580   1.908       .  S
Zn578       O583   2.013       .  S
Zn578       O586   1.952       .  S
Zn578       O589   1.998       .  S
Zn579       O580   1.924       .  S
Zn579       O587   1.995       .  S
Zn579       O590   2.093       .  S
Zn579       O591   1.989   1_565  S
O581        C593   1.269       .  A
O582        C594   1.277       .  A
O583        C595   1.273       .  A
O584        C593   1.277       .  A
O585        C595   1.280   1_545  A
O586        C594   1.270       .  A
O587        C596   1.275       .  A
O588        C597   1.280       .  A
O589        C596   1.273       .  A
O590        C597   1.279       .  A
O591        C598   1.277       .  A
O592        C598   1.282       .  A
C593       C1849   1.449       .  S
C594       C1857   1.453       .  S
C595       C1889   1.506       .  S
C596       C2785   1.472       .  S
C597       C1953   1.515       .  S
C598       C1881   1.481       .  S
Zn599       O603   1.909       .  S
Zn599       O604   2.053       .  S
Zn599       O608   1.943       .  S
Zn599       O615   2.021       .  S
Zn600       O603   1.935       .  S
Zn600       O605   1.965       .  S
Zn600       O607   2.103       .  S
Zn600       O611   2.034       .  S
Zn601       O603   1.924       .  S
Zn601       O606   2.026       .  S
Zn601       O609   2.029       .  S
Zn601       O612   2.117       .  S
Zn602       O603   1.907       .  S
Zn602       O610   2.077       .  S
Zn602       O613   1.972       .  S
Zn602       O614   1.980       .  S
O604        C616   1.276       .  A
O605        C617   1.270       .  A
O606        C618   1.280       .  A
O607        C616   1.280       .  A
O608        C618   1.268       .  A
O609        C617   1.281       .  A
O610        C619   1.279       .  A
O611        C620   1.281       .  A
O612        C619   1.281       .  A
O613        C620   1.274       .  A
O614        C621   1.274       .  A
O615        C621   1.278       .  A
C616       C1817   1.505       .  S
C617       C1841   1.450       .  S
C618       C1913   1.445       .  S
C619       C1825   1.527       .  S
C620       C1793   1.472       .  S
C621       C1993   1.473       .  S
Zn622       O626   1.952       .  S
Zn622       O627   2.142       .  S
Zn622       O631   2.042       .  S
Zn622       O638   2.045       .  S
Zn623       O626   1.918       .  S
Zn623       O628   1.988       .  S
Zn623       O630   2.067       .  S
Zn623       O634   1.999       .  S
Zn624       O626   1.949       .  S
Zn624       O629   2.020       .  S
Zn624       O632   1.985       .  S
Zn624       O635   2.081       .  S
Zn625       O626   1.923       .  S
Zn625       O633   2.029       .  S
Zn625       O636   1.963       .  S
Zn625       O637   1.994       .  S
O627        C639   1.286       .  A
O628        C640   1.273       .  A
O629        C641   1.280       .  A
O630        C639   1.279       .  A
O631        C641   1.283       .  A
O632        C640   1.270       .  A
O633        C642   1.275       .  A
O634        C643   1.272       .  A
O635        C642   1.278       .  A
O636        C643   1.267       .  A
O637        C644   1.275       .  A
O638        C644   1.281       .  A
C639       C1833   1.529       .  S
C640       C1929   1.446       .  S
C641       C1977   1.485       .  S
C642       C2665   1.505       .  S
C643       C1865   1.444       .  S
C644       C1777   1.479       .  S
Zn645       O649   1.931       .  S
Zn645       O650   1.982       .  S
Zn645       O654   2.115       .  S
Zn645       O661   2.015       .  S
Zn646       O649   1.933       .  S
Zn646       O651   2.009   1_556  S
Zn646       O653   2.001       .  S
Zn646       O657   2.043       .  S
Zn647       O649   1.931   1_554  S
Zn647       O652   2.100       .  S
Zn647       O655   1.949       .  S
Zn647       O658   2.001       .  S
Zn648       O649   1.966       .  S
Zn648       O656   2.034   1_556  S
Zn648       O659   2.114       .  S
Zn648       O660   2.040       .  S
O650        C662   1.272       .  A
O651        C663   1.278       .  A
O652        C664   1.277   1_554  A
O653        C662   1.276       .  A
O654        C664   1.282       .  A
O655        C663   1.271       .  A
O656        C665   1.277       .  A
O657        C666   1.273       .  A
O658        C665   1.277       .  A
O659        C666   1.282       .  A
O660        C667   1.280       .  A
O661        C667   1.280       .  A
C662       C1745   1.468       .  S
C663       C1729   1.457       .  S
C664       C1761   1.532       .  S
C665       C1945   1.469       .  S
C666       C2513   1.508       .  S
C667       C3073   1.468       .  S
Zn668       O672   1.933   1_556  S
Zn668       O673   1.954       .  S
Zn668       O677   1.992       .  S
Zn668       O684   2.101       .  S
Zn669       O672   1.947       .  S
Zn669       O674   2.047       .  S
Zn669       O676   2.036   1_554  S
Zn669       O680   2.003       .  S
Zn670       O672   1.987   1_556  S
Zn670       O675   2.051       .  S
Zn670       O678   2.129       .  S
Zn670       O681   2.048   1_556  S
Zn671       O672   1.942       .  S
Zn671       O679   1.993       .  S
Zn671       O682   1.977       .  S
Zn671       O683   2.113       .  S
O673        C685   1.271       .  A
O674        C686   1.274       .  A
O675        C687   1.280       .  A
O676        C685   1.279       .  A
O677        C687   1.276       .  A
O678        C686   1.284   1_556  A
O679        C688   1.277       .  A
O680        C689   1.277       .  A
O681        C688   1.279       .  A
O682        C689   1.271       .  A
O683        C690   1.281       .  A
O684        C690   1.277   1_556  A
C685       C1705   1.471       .  S
C686       C1721   1.513       .  S
C687       C2985   1.479       .  S
C688       C1873   1.471       .  S
C689       C1681   1.468       .  S
C690       C1769   1.533       .  S
Zn691       O695   1.904       .  S
Zn691       O696   1.962       .  S
Zn691       O700   1.994       .  S
Zn691       O707   2.077       .  S
Zn692       O695   1.912       .  S
Zn692       O697   2.011       .  S
Zn692       O699   1.995       .  S
Zn692       O703   1.995       .  S
Zn693       O695   1.968       .  S
Zn693       O698   2.051       .  S
Zn693       O701   2.143       .  S
Zn693       O704   2.069       .  S
Zn694       O695   1.933       .  S
Zn694       O702   1.977       .  S
Zn694       O705   1.984       .  S
Zn694       O706   2.097       .  S
O696        C708   1.271       .  A
O697        C709   1.271       .  A
O698        C710   1.279       .  A
O699        C708   1.275       .  A
O700        C710   1.275       .  A
O701        C709   1.287       .  A
O702        C711   1.275       .  A
O703        C712   1.275       .  A
O704        C711   1.284       .  A
O705        C712   1.272       .  A
O706        C713   1.277       .  A
O707        C713   1.278       .  A
C708       C1737   1.460       .  S
C709       C1809   1.515       .  S
C710       C2425   1.467       .  S
C711       C1657   1.470       .  S
C712       C1689   1.468       .  S
C713       C1665   1.519       .  S
Zn714       O718   1.946       .  S
Zn714       O719   2.024       .  S
Zn714       O723   2.019       .  S
Zn714       O730   2.114       .  S
Zn715       O718   1.927       .  S
Zn715       O720   2.051       .  S
Zn715       O722   1.997       .  S
Zn715       O726   1.973       .  S
Zn716       O718   1.956       .  S
Zn716       O721   2.012       .  S
Zn716       O724   2.092       .  S
Zn716       O727   1.992       .  S
Zn717       O718   1.929       .  S
Zn717       O725   1.995       .  S
Zn717       O728   2.004       .  S
Zn717       O729   2.070       .  S
O719        C731   1.276       .  A
O720        C732   1.276       .  A
O721        C733   1.279       .  A
O722        C731   1.274       .  A
O723        C733   1.281       .  A
O724        C732   1.280       .  A
O725        C734   1.274       .  A
O726        C735   1.269       .  A
O727        C734   1.269       .  A
O728        C735   1.275       .  A
O729        C736   1.276       .  A
O730        C736   1.284       .  A
C731       C1633   1.475       .  S
C732       C2913   1.513       .  S
C733       C2409   1.476       .  S
C734       C1753   1.450       .  S
C735       C1697   1.449       .  S
C736       C1673   1.515       .  S
Zn737       O741   1.917   1_556  S
Zn737       O742   2.091       .  S
Zn737       O746   2.006       .  S
Zn737       O753   1.975       .  S
Zn738       O741   1.946       .  S
Zn738       O743   1.992       .  S
Zn738       O745   2.092       .  S
Zn738       O749   1.978       .  S
Zn739       O741   1.976       .  S
Zn739       O744   2.060   1_554  S
Zn739       O747   2.076       .  S
Zn739       O750   2.163       .  S
Zn740       O741   1.933       .  S
Zn740       O748   2.014       .  S
Zn740       O751   1.999       .  S
Zn740       O752   2.005   1_554  S
O742        C754   1.280       .  A
O743        C755   1.277       .  A
O744        C756   1.282       .  A
O745        C754   1.278   1_554  A
O746        C756   1.277       .  A
O747        C755   1.286       .  A
O748        C757   1.272       .  A
O749        C758   1.270       .  A
O750        C757   1.287       .  A
O751        C758   1.275       .  A
O752        C759   1.274       .  A
O753        C759   1.274       .  A
C754       C1625   1.524       .  S
C755       C1601   1.479       .  S
C756       C3289   1.488       .  S
C757       C1713   1.518       .  S
C758       C1569   1.466       .  S
C759       C1585   1.462       .  S
Zn760       O764   1.909   1_554  S
Zn760       O765   2.065       .  S
Zn760       O769   1.973       .  S
Zn760       O776   1.971       .  S
Zn761       O764   1.932       .  S
Zn761       O766   2.015       .  S
Zn761       O768   2.117       .  S
Zn761       O772   1.964       .  S
Zn762       O764   1.965   1_554  S
Zn762       O767   2.033       .  S
Zn762       O770   2.038   1_554  S
Zn762       O773   2.116       .  S
Zn763       O764   1.929       .  S
Zn763       O771   2.019       .  S
Zn763       O774   1.996       .  S
Zn763       O775   2.004   1_556  S
O765        C777   1.276       .  A
O766        C778   1.279       .  A
O767        C779   1.277       .  A
O768        C777   1.280   1_556  A
O769        C779   1.272       .  A
O770        C778   1.280       .  A
O771        C780   1.271   1_556  A
O772        C781   1.272       .  A
O773        C780   1.283       .  A
O774        C781   1.275       .  A
O775        C782   1.276       .  A
O776        C782   1.274       .  A
C777       C1617   1.520       .  S
C778       C3345   1.471       .  S
C779       C1561   1.463       .  S
C780       C2809   1.503       .  S
C781       C1537   1.462       .  S
C782       C1521   1.467       .  S
Zn783       O787   1.922       .  S
Zn783       O788   1.988       .  S
Zn783       O792   1.969       .  S
Zn783       O799   2.030       .  S
Zn784       O787   1.956       .  S
Zn784       O789   2.141       .  S
Zn784       O791   2.042       .  S
Zn784       O795   2.022       .  S
Zn785       O787   1.908       .  S
Zn785       O790   2.004       .  S
Zn785       O793   2.056       .  S
Zn785       O796   1.999       .  S
Zn786       O787   1.950       .  S
Zn786       O794   1.974       .  S
Zn786       O797   1.993       .  S
Zn786       O798   2.062       .  S
O788        C800   1.274       .  A
O789        C801   1.285       .  A
O790        C802   1.276       .  A
O791        C800   1.281       .  A
O792        C802   1.269       .  A
O793        C801   1.279       .  A
O794        C803   1.267       .  A
O795        C804   1.281       .  A
O796        C803   1.274       .  A
O797        C804   1.276       .  A
O798        C805   1.275       .  A
O799        C805   1.273       .  A
C800       C1649   1.480       .  S
C801       C1505   1.527       .  S
C802       C1577   1.458       .  S
C803       C1529   1.445       .  S
C804       C2649   1.472       .  S
C805       C1489   1.501       .  S
Zn806       O810   1.952       .  S
Zn806       O811   2.076       .  S
Zn806       O815   1.992       .  S
Zn806       O822   2.025       .  S
Zn807       O810   1.945       .  S
Zn807       O812   1.963       .  S
Zn807       O814   2.046       .  S
Zn807       O818   2.017       .  S
Zn808       O810   1.927       .  S
Zn808       O813   1.981       .  S
Zn808       O816   2.005       .  S
Zn808       O819   2.074       .  S
Zn809       O810   1.933       .  S
Zn809       O817   2.102       .  S
Zn809       O820   1.994       .  S
Zn809       O821   1.994       .  S
O811        C823   1.279       .  A
O812        C824   1.269       .  A
O813        C825   1.273       .  A
O814        C823   1.275       .  A
O815        C825   1.270       .  A
O816        C824   1.276       .  A
O817        C826   1.281       .  A
O818        C827   1.275       .  A
O819        C826   1.277       .  A
O820        C827   1.276       .  A
O821        C828   1.275       .  A
O822        C828   1.280       .  A
C823       C3201   1.506       .  S
C824       C1545   1.447       .  S
C825       C1593   1.450       .  S
C826       C1513   1.522       .  S
C827       C2617   1.476       .  S
C828       C1641   1.472       .  S
Zn829       O833   1.953       .  S
Zn829       O834   1.983       .  S
Zn829       O838   2.040       .  S
Zn829       O845   2.090       .  S
Zn830       O833   1.931   1_455  S
Zn830       O835   2.078       .  S
Zn830       O837   2.006   1_455  S
Zn830       O841   2.030       .  S
Zn831       O833   1.932       .  S
Zn831       O836   2.000       .  S
Zn831       O839   2.099       .  S
Zn831       O842   2.012   1_655  S
Zn832       O833   1.915   1_455  S
Zn832       O840   2.003       .  S
Zn832       O843   1.971       .  S
Zn832       O844   2.035       .  S
O834        C846   1.271       .  A
O835        C847   1.278   1_455  A
O836        C848   1.277       .  A
O837        C846   1.277       .  A
O838        C848   1.280       .  A
O839        C847   1.282       .  A
O840        C849   1.275       .  A
O841        C850   1.279       .  A
O842        C849   1.278       .  A
O843        C850   1.269       .  A
O844        C851   1.275       .  A
O845        C851   1.279   1_655  A
C846       C1457   1.449       .  S
C847       C1473   1.521       .  S
C848       C2569   1.481       .  S
C849       C1553   1.475       .  S
C850       C1441   1.458       .  S
C851       C2313   1.506       .  S
Zn852       O856   1.951       .  S
Zn852       O857   2.029       .  S
Zn852       O861   1.982       .  S
Zn852       O868   2.067       .  S
Zn853       O856   1.940       .  S
Zn853       O858   2.127       .  S
Zn853       O860   2.030       .  S
Zn853       O864   2.038   1_655  S
Zn854       O856   1.915   1_455  S
Zn854       O859   2.009   1_455  S
Zn854       O862   2.069   1_455  S
Zn854       O865   2.010       .  S
Zn855       O856   1.918   1_455  S
Zn855       O863   1.976       .  S
Zn855       O866   2.014       .  S
Zn855       O867   2.044       .  S
O857        C869   1.279       .  A
O858        C870   1.285       .  A
O859        C871   1.276       .  A
O860        C869   1.282       .  A
O861        C871   1.271       .  A
O862        C870   1.281       .  A
O863        C872   1.269       .  A
O864        C873   1.281       .  A
O865        C872   1.274       .  A
O866        C873   1.278       .  A
O867        C874   1.276       .  A
O868        C874   1.276   1_655  A
C869       C2505   1.486       .  S
C870       C1481   1.524       .  S
C871       C1409   1.456       .  S
C872       C1393   1.451       .  S
C873       C1609   1.485       .  S
C874       C1425   1.502       .  S
Zn875       O879   1.919       .  S
Zn875       O880   1.994       .  S
Zn875       O884   1.979       .  S
Zn875       O891   2.070       .  S
Zn876       O879   1.932       .  S
Zn876       O881   2.045       .  S
Zn876       O883   2.014       .  S
Zn876       O887   1.980       .  S
Zn877       O879   1.937       .  S
Zn877       O882   2.056       .  S
Zn877       O885   2.058       .  S
Zn877       O888   1.977       .  S
Zn878       O879   1.926       .  S
Zn878       O886   2.014       .  S
Zn878       O889   2.012       .  S
Zn878       O890   2.090       .  S
O880        C892   1.276       .  A
O881        C893   1.277       .  A
O882        C894   1.281       .  A
O883        C892   1.277       .  A
O884        C894   1.273       .  A
O885        C893   1.278       .  A
O886        C895   1.277       .  A
O887        C896   1.269       .  A
O888        C895   1.273       .  A
O889        C896   1.276       .  A
O890        C897   1.281       .  A
O891        C897   1.277       .  A
C892       C2201   1.474       .  S
C893       C1497   1.502       .  S
C894       C1361   1.479       .  S
C895       C1401   1.458       .  S
C896       C1449   1.454       .  S
C897       C1377   1.515       .  S
Zn898       O902   1.940       .  S
Zn898       O903   2.012       .  S
Zn898       O907   2.007       .  S
Zn898       O914   2.040       .  S
Zn899       O902   1.972       .  S
Zn899       O904   2.055       .  S
Zn899       O906   2.103       .  S
Zn899       O910   2.047       .  S
Zn900       O902   1.927       .  S
Zn900       O905   1.971       .  S
Zn900       O908   1.982       .  S
Zn900       O911   2.076       .  S
Zn901       O902   1.907       .  S
Zn901       O909   2.080       .  S
Zn901       O912   1.979       .  S
Zn901       O913   1.951       .  S
O903        C915   1.271       .  A
O904        C916   1.279       .  A
O905        C917   1.272       .  A
O906        C915   1.283       .  A
O907        C917   1.276       .  A
O908        C916   1.272       .  A
O909        C918   1.275       .  A
O910        C919   1.279       .  A
O911        C918   1.277       .  A
O912        C919   1.275       .  A
O913        C920   1.270       .  A
O914        C920   1.278       .  A
C915       C2441   1.493       .  S
C916       C1345   1.463       .  S
C917       C1417   1.466       .  S
C918       C1385   1.508       .  S
C919       C2169   1.477       .  S
C920       C1465   1.468       .  S
Zn921       O925   1.939       .  S
Zn921       O926   2.095       .  S
Zn921       O930   2.021       .  S
Zn921       O937   2.003   1_545  S
Zn922       O925   1.926       .  S
Zn922       O927   1.996       .  S
Zn922       O929   2.065       .  S
Zn922       O933   1.999   1_545  S
Zn923       O925   1.942       .  S
Zn923       O928   2.007       .  S
Zn923       O931   1.986       .  S
Zn923       O934   2.061       .  S
Zn924       O925   1.937   1_565  S
Zn924       O932   2.041       .  S
Zn924       O935   1.973       .  S
Zn924       O936   2.023       .  S
O926        C938   1.280       .  A
O927        C939   1.273       .  A
O928        C940   1.277       .  A
O929        C938   1.278       .  A
O930        C940   1.280       .  A
O931        C939   1.268       .  A
O932        C941   1.276   1_565  A
O933        C942   1.274       .  A
O934        C941   1.277       .  A
O935        C942   1.270       .  A
O936        C943   1.276       .  A
O937        C943   1.275       .  A
C938       C1337   1.511       .  S
C939       C1281   1.449       .  S
C940       C1313   1.475       .  S
C941       C3017   1.502   1_545  S
C942       C1305   1.450       .  S
C943       C2377   1.480       .  S
Zn944       O948   1.949       .  S
Zn944       O949   2.029   1_545  S
Zn944       O953   2.094       .  S
Zn944       O960   2.041       .  S
Zn945       O948   1.928   1_565  S
Zn945       O950   1.987       .  S
Zn945       O952   2.009       .  S
Zn945       O956   2.092       .  S
Zn946       O948   1.933   1_565  S
Zn946       O951   2.028       .  S
Zn946       O954   2.009       .  S
Zn946       O957   2.036   1_565  S
Zn947       O948   1.896       .  S
Zn947       O955   1.951       .  S
Zn947       O958   2.061       .  S
Zn947       O959   1.982       .  S
O949        C961   1.278       .  A
O950        C962   1.273       .  A
O951        C963   1.274   1_565  A
O952        C961   1.279       .  A
O953        C963   1.283       .  A
O954        C962   1.277       .  A
O955        C964   1.271       .  A
O956        C965   1.280   1_565  A
O957        C964   1.277       .  A
O958        C965   1.275       .  A
O959        C966   1.274       .  A
O960        C966   1.279       .  A
C961       C2281   1.470       .  S
C962       C1257   1.468       .  S
C963       C1897   1.499       .  S
C964       C1233   1.466       .  S
C965       C1329   1.513       .  S
C966       C1273   1.479       .  S
Zn967       O971   1.916       .  S
Zn967       O972   2.014       .  S
Zn967       O976   2.039       .  S
Zn967       O983   2.003       .  S
Zn968       O971   1.931       .  S
Zn968       O973   2.024       .  S
Zn968       O975   1.975       .  S
Zn968       O979   2.063       .  S
Zn969       O971   1.954       .  S
Zn969       O974   2.136       .  S
Zn969       O977   2.045       .  S
Zn969       O980   2.032       .  S
Zn970       O971   1.930       .  S
Zn970       O978   1.974       .  S
Zn970       O981   2.034       .  S
Zn970       O982   1.983       .  S
O972        C984   1.277       .  A
O973        C985   1.279       .  A
O974        C986   1.285       .  A
O975        C984   1.272       .  A
O976        C986   1.277       .  A
O977        C985   1.281       .  A
O978        C987   1.273       .  A
O979        C988   1.277       .  A
O980        C987   1.281       .  A
O981        C988   1.275       .  A
O982        C989   1.267       .  A
O983        C989   1.274       .  A
C984       C1289   1.457       .  S
C985       C2905   1.487       .  S
C986       C1225   1.522       .  S
C987       C1801   1.472       .  S
C988       C1209   1.500       .  S
C989       C1241   1.452       .  S
Zn990       O994   1.933       .  S
Zn990       O995   1.988       .  S
Zn990       O999   2.014       .  S
Zn990      O1006   2.087       .  S
Zn991       O994   1.970       .  S
Zn991       O996   2.110       .  S
Zn991       O998   2.054       .  S
Zn991      O1002   2.003       .  S
Zn992       O994   1.922       .  S
Zn992       O997   2.005       .  S
Zn992      O1000   2.023       .  S
Zn992      O1003   1.967       .  S
Zn993       O994   1.928       .  S
Zn993      O1001   2.003       .  S
Zn993      O1004   1.994       .  S
Zn993      O1005   2.093       .  S
O995       C1007   1.276       .  A
O996       C1008   1.282       .  A
O997       C1009   1.274       .  A
O998       C1007   1.283       .  A
O999       C1009   1.276       .  A
O1000      C1008   1.274       .  A
O1001      C1010   1.274       .  A
O1002      C1011   1.272       .  A
O1003      C1010   1.269       .  A
O1004      C1011   1.275       .  A
O1005      C1012   1.280       .  A
O1006      C1012   1.281       .  A
C1007      C1785   1.481       .  S
C1008      C2217   1.511       .  S
C1009      C2857   1.477       .  S
C1010      C1297   1.446       .  S
C1011      C1249   1.458       .  S
C1012      C1217   1.521       .  S
Zn1013     O1017   1.937   1_655  S
Zn1013     O1018   1.998       .  S
Zn1013     O1022   1.999   1_655  S
Zn1013     O1029   2.068   1_655  S
Zn1014     O1017   1.961   1_655  S
Zn1014     O1019   2.069       .  S
Zn1014     O1021   2.062       .  S
Zn1014     O1025   1.982       .  S
Zn1015     O1017   1.969       .  S
Zn1015     O1020   2.028       .  S
Zn1015     O1023   2.068       .  S
Zn1015     O1026   1.993       .  S
Zn1016     O1017   1.948       .  S
Zn1016     O1024   1.995       .  S
Zn1016     O1027   1.989   1_455  S
Zn1016     O1028   2.091       .  S
O1018      C1030   1.274       .  A
O1019      C1031   1.278       .  A
O1020      C1032   1.279       .  A
O1021      C1030   1.280       .  A
O1022      C1032   1.276       .  A
O1023      C1031   1.278   1_455  A
O1024      C1033   1.273       .  A
O1025      C1034   1.273       .  A
O1026      C1033   1.268       .  A
O1027      C1034   1.274       .  A
O1028      C1035   1.277       .  A
O1029      C1035   1.277       .  A
C1030      C2129   1.475       .  S
C1031      C3305   1.511       .  S
C1032      C1321   1.478       .  S
C1033      C1161   1.450       .  S
C1034      C1177   1.463       .  S
C1035      C1185   1.511       .  S
Zn1036     O1040   1.919       .  S
Zn1036     O1041   2.074       .  S
Zn1036     O1045   1.975       .  S
Zn1036     O1052   1.983       .  S
Zn1037     O1040   1.886   1_655  S
Zn1037     O1042   1.974       .  S
Zn1037     O1044   2.080       .  S
Zn1037     O1048   1.980       .  S
Zn1038     O1040   1.925       .  S
Zn1038     O1043   1.997       .  S
Zn1038     O1046   2.020   1_455  S
Zn1038     O1049   2.015       .  S
Zn1039     O1040   1.947       .  S
Zn1039     O1047   2.112       .  S
Zn1039     O1050   2.053   1_455  S
Zn1039     O1051   2.055       .  S
O1041      C1053   1.278   1_455  A
O1042      C1054   1.268       .  A
O1043      C1055   1.274       .  A
O1044      C1053   1.279       .  A
O1045      C1055   1.271       .  A
O1046      C1054   1.274       .  A
O1047      C1056   1.286       .  A
O1048      C1057   1.274       .  A
O1049      C1056   1.274       .  A
O1050      C1057   1.279       .  A
O1051      C1058   1.283       .  A
O1052      C1058   1.277       .  A
C1053      C1193   1.512       .  S
C1054      C1145   1.449       .  S
C1055      C1121   1.468       .  S
C1056      C1433   1.499       .  S
C1057      C2073   1.481       .  S
C1058      C1265   1.476       .  S
Zn1059     O1063   1.922       .  S
Zn1059     O1064   2.009       .  S
Zn1059     O1068   1.995       .  S
Zn1059     O1075   2.074       .  S
Zn1060     O1063   1.935       .  S
Zn1060     O1065   2.038       .  S
Zn1060     O1067   1.983       .  S
Zn1060     O1071   2.005       .  S
Zn1061     O1063   1.952       .  S
Zn1061     O1066   1.976       .  S
Zn1061     O1069   2.057       .  S
Zn1061     O1072   2.007       .  S
Zn1062     O1063   1.949       .  S
Zn1062     O1070   2.034       .  S
Zn1062     O1073   2.032       .  S
Zn1062     O1074   2.115       .  S
O1064      C1076   1.275       .  A
O1065      C1077   1.275       .  A
O1066      C1078   1.268       .  A
O1067      C1076   1.271       .  A
O1068      C1078   1.274       .  A
O1069      C1077   1.275       .  A
O1070      C1079   1.280       .  A
O1071      C1080   1.276       .  A
O1072      C1079   1.276       .  A
O1073      C1080   1.280       .  A
O1074      C1081   1.282       .  A
O1075      C1081   1.281       .  A
C1076      C1153   1.461       .  S
C1077      C1201   1.502       .  S
C1078      C1129   1.451       .  S
C1079      C1369   1.479       .  S
C1080      C3185   1.481       .  S
C1081      C1105   1.523       .  S
Zn1082     O1086   1.942       .  S
Zn1082     O1087   2.002       .  S
Zn1082     O1091   1.992       .  S
Zn1082     O1098   2.050       .  S
Zn1083     O1086   1.945       .  S
Zn1083     O1088   2.136       .  S
Zn1083     O1090   2.037       .  S
Zn1083     O1094   2.023       .  S
Zn1084     O1086   1.917       .  S
Zn1084     O1089   1.965       .  S
Zn1084     O1092   2.041       .  S
Zn1084     O1095   1.975       .  S
Zn1085     O1086   1.940       .  S
Zn1085     O1093   1.999       .  S
Zn1085     O1096   2.030       .  S
Zn1085     O1097   2.084       .  S
O1087      C1099   1.278       .  A
O1088      C1100   1.286       .  A
O1089      C1101   1.271       .  A
O1090      C1099   1.282       .  A
O1091      C1101   1.268       .  A
O1092      C1100   1.273       .  A
O1093      C1102   1.275       .  A
O1094      C1103   1.279       .  A
O1095      C1102   1.272       .  A
O1096      C1103   1.280       .  A
O1097      C1104   1.281       .  A
O1098      C1104   1.278       .  A
C1099      C3137   1.480       .  S
C1100      C1113   1.522       .  S
C1101      C1169   1.448       .  S
C1102      C1137   1.464       .  S
C1103      C1353   1.482       .  S
C1104      C2009   1.506       .  S
C1105      C1106   1.411       .  A
C1105      C1110   1.423       .  A
C1106      C1107   1.404       .  A
C1106      H1115   1.083       .  S
C1107      C1108   1.404   1_455  A
C1107      H1116   1.084       .  S
C1108      C1114   1.420       .  A
C1108      C1109   1.412   1_655  A
C1109      C1111   1.411   1_455  A
C1109      C1110   1.431       .  A
C1110      H1117   1.083       .  S
C1111      C1112   1.416       .  A
C1111      H1118   1.083   1_655  S
C1112      C1113   1.410       .  A
C1112      H1119   1.083       .  S
C1113      C1114   1.419       .  A
C1114      H1120   1.084       .  S
C1121      C1122   1.406       .  A
C1121      C1126   1.403       .  A
C1122      C1123   1.390       .  A
C1122      H1131   1.083       .  S
C1123      C1124   1.397       .  A
C1123      H1132   1.084       .  S
C1124      C1130   1.393       .  A
C1124      C1125   1.415       .  A
C1125      C1127   1.401       .  A
C1125      C1126   1.396       .  A
C1126      H1133   1.084       .  S
C1127      C1128   1.393       .  A
C1127      H1134   1.084       .  S
C1128      C1129   1.401       .  A
C1128      H1135   1.084       .  S
C1129      C1130   1.396       .  A
C1130      H1136   1.085       .  S
C1137      C1138   1.406       .  A
C1137      C1142   1.402       .  A
C1138      C1139   1.390       .  A
C1138      H1147   1.083       .  S
C1139      C1140   1.398       .  A
C1139      H1148   1.084       .  S
C1140      C1146   1.394       .  A
C1140      C1141   1.415       .  A
C1141      C1143   1.402       .  A
C1141      C1142   1.397       .  A
C1142      H1149   1.084       .  S
C1143      C1144   1.394       .  A
C1143      H1150   1.084       .  S
C1144      C1145   1.402       .  A
C1144      H1151   1.083       .  S
C1145      C1146   1.398       .  A
C1146      H1152   1.086       .  S
C1153      C1154   1.402       .  A
C1153      C1158   1.401       .  A
C1154      C1155   1.393       .  A
C1154      H1163   1.083       .  S
C1155      C1156   1.401       .  A
C1155      H1164   1.084       .  S
C1156      C1162   1.395       .  A
C1156      C1157   1.416       .  A
C1157      C1159   1.402       .  A
C1157      C1158   1.396       .  A
C1158      H1165   1.085       .  S
C1159      C1160   1.394       .  A
C1159      H1166   1.084       .  S
C1160      C1161   1.399       .  A
C1160      H1167   1.083       .  S
C1161      C1162   1.397       .  A
C1162      H1168   1.085       .  S
C1169      C1170   1.398       .  A
C1169      C1174   1.398       .  A
C1170      C1171   1.396       .  A
C1170      H1179   1.083       .  S
C1171      C1172   1.405       .  A
C1171      H1180   1.084       .  S
C1172      C1178   1.394       .  A
C1172      C1173   1.414       .  A
C1173      C1175   1.400       .  A
C1173      C1174   1.389       .  A
C1174      H1181   1.086       .  S
C1175      C1176   1.390       .  A
C1175      H1182   1.084       .  S
C1176      C1177   1.403       .  A
C1176      H1183   1.083       .  S
C1177      C1178   1.404       .  A
C1178      H1184   1.084       .  S
C1185      C1186   1.408       .  A
C1185      C1190   1.418   1_455  A
C1186      C1187   1.405       .  A
C1186      H1195   1.083       .  S
C1187      C1188   1.405       .  A
C1187      H1196   1.083       .  S
C1188      C1194   1.421       .  A
C1188      C1189   1.414   1_455  A
C1189      C1191   1.408       .  A
C1189      C1190   1.425       .  A
C1190      H1197   1.084       .  S
C1191      C1192   1.409       .  A
C1191      H1198   1.084       .  S
C1192      C1193   1.410       .  A
C1192      H1199   1.082       .  S
C1193      C1194   1.415   1_655  A
C1194      H1200   1.084       .  S
C1201      C1202   1.410       .  A
C1201      C1206   1.414       .  A
C1202      C1203   1.401       .  A
C1202      H1211   1.083       .  S
C1203      C1204   1.402       .  A
C1203      H1212   1.084       .  S
C1204      C1210   1.414       .  A
C1204      C1205   1.414       .  A
C1205      C1207   1.404       .  A
C1205      C1206   1.416       .  A
C1206      H1213   1.084       .  S
C1207      C1208   1.404       .  A
C1207      H1214   1.083       .  S
C1208      C1209   1.410       .  A
C1208      H1215   1.083       .  S
C1209      C1210   1.411       .  A
C1210      H1216   1.084       .  S
C1217      C1218   1.412       .  A
C1217      C1222   1.416       .  A
C1218      C1219   1.412       .  A
C1218      H1227   1.083       .  S
C1219      C1220   1.408   1_565  A
C1219      H1228   1.083       .  S
C1220      C1226   1.431       .  A
C1220      C1221   1.414   1_545  A
C1221      C1223   1.402   1_565  A
C1221      C1222   1.422       .  A
C1222      H1229   1.084       .  S
C1223      C1224   1.403       .  A
C1223      H1230   1.084       .  S
C1224      C1225   1.414       .  A
C1224      H1231   1.083       .  S
C1225      C1226   1.420       .  A
C1226      H1232   1.083       .  S
C1233      C1234   1.401       .  A
C1233      C1238   1.405       .  A
C1234      C1235   1.396       .  A
C1234      H1243   1.083       .  S
C1235      C1236   1.404       .  A
C1235      H1244   1.084       .  S
C1236      C1242   1.395       .  A
C1236      C1237   1.413       .  A
C1237      C1239   1.404       .  A
C1237      C1238   1.393       .  A
C1238      H1245   1.085       .  S
C1239      C1240   1.395       .  A
C1239      H1246   1.084       .  S
C1240      C1241   1.397       .  A
C1240      H1247   1.083       .  S
C1241      C1242   1.401       .  A
C1242      H1248   1.085       .  S
C1249      C1250   1.401       .  A
C1249      C1254   1.398       .  A
C1250      C1251   1.396       .  A
C1250      H1259   1.083       .  S
C1251      C1252   1.403       .  A
C1251      H1260   1.084       .  S
C1252      C1258   1.398       .  A
C1252      C1253   1.415       .  A
C1253      C1255   1.398       .  A
C1253      C1254   1.393       .  A
C1254      H1261   1.085       .  S
C1255      C1256   1.390       .  A
C1255      H1262   1.084       .  S
C1256      C1257   1.406       .  A
C1256      H1263   1.083       .  S
C1257      C1258   1.403       .  A
C1258      H1264   1.084       .  S
C1265      C1266   1.404       .  A
C1265      C1270   1.404       .  A
C1266      C1267   1.404       .  A
C1266      H1275   1.083       .  S
C1267      C1268   1.407       .  A
C1267      H1276   1.083       .  S
C1268      C1274   1.407       .  A
C1268      C1269   1.412       .  A
C1269      C1271   1.398       .  A
C1269      C1270   1.395       .  A
C1270      H1277   1.085       .  S
C1271      C1272   1.390       .  A
C1271      H1278   1.084       .  S
C1272      C1273   1.407       .  A
C1272      H1279   1.083       .  S
C1273      C1274   1.410       .  A
C1274      H1280   1.084       .  S
C1281      C1282   1.398       .  A
C1281      C1286   1.399       .  A
C1282      C1283   1.394       .  A
C1282      H1291   1.083       .  S
C1283      C1284   1.403       .  A
C1283      H1292   1.084       .  S
C1284      C1290   1.394       .  A
C1284      C1285   1.415       .  A
C1285      C1287   1.403       .  A
C1285      C1286   1.394       .  A
C1286      H1293   1.086       .  S
C1287      C1288   1.394       .  A
C1287      H1294   1.084       .  S
C1288      C1289   1.400       .  A
C1288      H1295   1.083       .  S
C1289      C1290   1.401       .  A
C1290      H1296   1.085       .  S
C1297      C1298   1.399       .  A
C1297      C1302   1.396       .  A
C1298      C1299   1.392       .  A
C1298      H1307   1.083       .  S
C1299      C1300   1.402       .  A
C1299      H1308   1.084       .  S
C1300      C1306   1.392       .  A
C1300      C1301   1.416       .  A
C1301      C1303   1.401       .  A
C1301      C1302   1.391       .  A
C1302      H1309   1.085       .  S
C1303      C1304   1.392       .  A
C1303      H1310   1.084       .  S
C1304      C1305   1.400       .  A
C1304      H1311   1.083       .  S
C1305      C1306   1.398       .  A
C1306      H1312   1.085       .  S
C1313      C1314   1.406       .  A
C1313      C1318   1.403       .  A
C1314      C1315   1.398       .  A
C1314      H1323   1.083       .  S
C1315      C1316   1.402       .  A
C1315      H1324   1.084       .  S
C1316      C1322   1.404       .  A
C1316      C1317   1.414       .  A
C1317      C1319   1.399       .  A
C1317      C1318   1.399       .  A
C1318      H1325   1.084       .  S
C1319      C1320   1.393       .  A
C1319      H1326   1.084       .  S
C1320      C1321   1.407       .  A
C1320      H1327   1.083       .  S
C1321      C1322   1.407       .  A
C1322      H1328   1.084       .  S
C1329      C1330   1.410   1_545  A
C1329      C1334   1.416       .  A
C1330      C1331   1.410       .  A
C1330      H1339   1.083       .  S
C1331      C1332   1.408   1_565  A
C1331      H1340   1.083       .  S
C1332      C1338   1.425       .  A
C1332      C1333   1.414       .  A
C1333      C1335   1.405       .  A
C1333      C1334   1.420       .  A
C1334      H1341   1.084       .  S
C1335      C1336   1.405       .  A
C1335      H1342   1.084       .  S
C1336      C1337   1.409       .  A
C1336      H1343   1.083       .  S
C1337      C1338   1.417       .  A
C1338      H1344   1.084   1_545  S
C1345      C1346   1.401       .  A
C1345      C1350   1.403       .  A
C1346      C1347   1.395       .  A
C1346      H1355   1.084       .  S
C1347      C1348   1.402       .  A
C1347      H1356   1.084       .  S
C1348      C1354   1.401       .  A
C1348      C1349   1.414       .  A
C1349      C1351   1.403       .  A
C1349      C1350   1.406       .  A
C1350      H1357   1.084       .  S
C1351      C1352   1.400       .  A
C1351      H1358   1.084       .  S
C1352      C1353   1.406       .  A
C1352      H1359   1.083       .  S
C1353      C1354   1.406       .  A
C1354      H1360   1.084       .  S
C1361      C1362   1.408       .  A
C1361      C1366   1.406       .  A
C1362      C1363   1.390       .  A
C1362      H1371   1.083       .  S
C1363      C1364   1.397       .  A
C1363      H1372   1.084       .  S
C1364      C1370   1.399       .  A
C1364      C1365   1.415       .  A
C1365      C1367   1.403       .  A
C1365      C1366   1.409       .  A
C1366      H1373   1.084       .  S
C1367      C1368   1.401       .  A
C1367      H1374   1.083       .  S
C1368      C1369   1.407       .  A
C1368      H1375   1.083       .  S
C1369      C1370   1.403       .  A
C1370      H1376   1.084       .  S
C1377      C1378   1.410       .  A
C1377      C1382   1.418       .  A
C1378      C1379   1.408       .  A
C1378      H1387   1.083       .  S
C1379      C1380   1.407   1_455  A
C1379      H1388   1.084       .  S
C1380      C1386   1.423       .  A
C1380      C1381   1.414   1_655  A
C1381      C1383   1.407   1_455  A
C1381      C1382   1.423       .  A
C1382      H1389   1.084       .  S
C1383      C1384   1.408       .  A
C1383      H1390   1.083       .  S
C1384      C1385   1.407       .  A
C1384      H1391   1.083       .  S
C1385      C1386   1.416       .  A
C1386      H1392   1.084       .  S
C1393      C1394   1.399       .  A
C1393      C1398   1.399       .  A
C1394      C1395   1.392       .  A
C1394      H1403   1.083       .  S
C1395      C1396   1.401       .  A
C1395      H1404   1.084       .  S
C1396      C1402   1.393       .  A
C1396      C1397   1.416       .  A
C1397      C1399   1.402       .  A
C1397      C1398   1.396       .  A
C1398      H1405   1.085       .  S
C1399      C1400   1.395       .  A
C1399      H1406   1.084       .  S
C1400      C1401   1.402       .  A
C1400      H1407   1.083       .  S
C1401      C1402   1.400       .  A
C1402      H1408   1.085       .  S
C1409      C1410   1.401       .  A
C1409      C1414   1.400       .  A
C1410      C1411   1.391       .  A
C1410      H1419   1.083       .  S
C1411      C1412   1.401       .  A
C1411      H1420   1.084       .  S
C1412      C1418   1.392       .  A
C1412      C1413   1.414       .  A
C1413      C1415   1.402       .  A
C1413      C1414   1.395       .  A
C1414      H1421   1.085       .  S
C1415      C1416   1.394       .  A
C1415      H1422   1.084       .  S
C1416      C1417   1.403       .  A
C1416      H1423   1.083       .  S
C1417      C1418   1.403       .  A
C1418      H1424   1.085       .  S
C1425      C1426   1.409       .  A
C1425      C1430   1.416   1_455  A
C1426      C1427   1.400       .  A
C1426      H1435   1.083       .  S
C1427      C1428   1.402       .  A
C1427      H1436   1.084       .  S
C1428      C1434   1.412       .  A
C1428      C1429   1.413   1_455  A
C1429      C1431   1.409       .  A
C1429      C1430   1.421       .  A
C1430      H1437   1.084       .  S
C1431      C1432   1.410       .  A
C1431      H1438   1.083       .  S
C1432      C1433   1.406   1_655  A
C1432      H1439   1.083       .  S
C1433      C1434   1.412       .  A
C1434      H1440   1.084       .  S
C1441      C1442   1.403       .  A
C1441      C1446   1.398       .  A
C1442      C1443   1.392       .  A
C1442      H1451   1.084       .  S
C1443      C1444   1.399       .  A
C1443      H1452   1.084       .  S
C1444      C1450   1.397       .  A
C1444      C1445   1.417       .  A
C1445      C1447   1.400       .  A
C1445      C1446   1.398       .  A
C1446      H1453   1.085       .  S
C1447      C1448   1.393       .  A
C1447      H1454   1.084       .  S
C1448      C1449   1.402       .  A
C1448      H1455   1.084       .  S
C1449      C1450   1.397       .  A
C1450      H1456   1.085       .  S
C1457      C1458   1.397       .  A
C1457      C1462   1.400       .  A
C1458      C1459   1.397       .  A
C1458      H1467   1.083       .  S
C1459      C1460   1.406       .  A
C1459      H1468   1.084       .  S
C1460      C1466   1.394       .  A
C1460      C1461   1.412       .  A
C1461      C1463   1.403       .  A
C1461      C1462   1.393       .  A
C1462      H1469   1.086       .  S
C1463      C1464   1.395       .  A
C1463      H1470   1.084       .  S
C1464      C1465   1.401       .  A
C1464      H1471   1.083       .  S
C1465      C1466   1.408       .  A
C1466      H1472   1.085       .  S
C1473      C1474   1.412       .  A
C1473      C1478   1.417   1_655  A
C1474      C1475   1.413       .  A
C1474      H1483   1.083       .  S
C1475      C1476   1.409       .  A
C1475      H1484   1.083       .  S
C1476      C1482   1.431       .  A
C1476      C1477   1.413       .  A
C1477      C1479   1.403   1_655  A
C1477      C1478   1.422   1_655  A
C1478      H1485   1.084       .  S
C1479      C1480   1.405       .  A
C1479      H1486   1.084       .  S
C1480      C1481   1.413   1_455  A
C1480      H1487   1.083       .  S
C1481      C1482   1.422       .  A
C1482      H1488   1.083       .  S
C1489      C1490   1.410       .  A
C1489      C1494   1.414       .  A
C1490      C1491   1.400       .  A
C1490      H1499   1.083       .  S
C1491      C1492   1.402       .  A
C1491      H1500   1.084       .  S
C1492      C1498   1.414       .  A
C1492      C1493   1.414       .  A
C1493      C1495   1.405       .  A
C1493      C1494   1.417       .  A
C1494      H1501   1.084       .  S
C1495      C1496   1.405       .  A
C1495      H1502   1.083       .  S
C1496      C1497   1.410       .  A
C1496      H1503   1.083       .  S
C1497      C1498   1.412       .  A
C1498      H1504   1.084       .  S
C1505      C1506   1.413       .  A
C1505      C1510   1.424       .  A
C1506      C1507   1.402       .  A
C1506      H1515   1.083       .  S
C1507      C1508   1.401   1_554  A
C1507      H1516   1.084       .  S
C1508      C1514   1.421       .  A
C1508      C1509   1.413   1_556  A
C1509      C1511   1.411   1_554  A
C1509      C1510   1.435       .  A
C1510      H1517   1.083       .  S
C1511      C1512   1.416       .  A
C1511      H1518   1.083       .  S
C1512      C1513   1.412       .  A
C1512      H1519   1.083       .  S
C1513      C1514   1.416       .  A
C1514      H1520   1.084       .  S
C1521      C1522   1.404       .  A
C1521      C1526   1.404       .  A
C1522      C1523   1.393       .  A
C1522      H1531   1.083       .  S
C1523      C1524   1.400       .  A
C1523      H1532   1.084       .  S
C1524      C1530   1.393       .  A
C1524      C1525   1.414       .  A
C1525      C1527   1.403       .  A
C1525      C1526   1.392       .  A
C1526      H1533   1.084       .  S
C1527      C1528   1.393       .  A
C1527      H1534   1.084       .  S
C1528      C1529   1.398       .  A
C1528      H1535   1.083       .  S
C1529      C1530   1.397       .  A
C1530      H1536   1.085       .  S
C1537      C1538   1.403       .  A
C1537      C1542   1.402       .  A
C1538      C1539   1.394       .  A
C1538      H1547   1.083       .  S
C1539      C1540   1.402       .  A
C1539      H1548   1.084       .  S
C1540      C1546   1.392       .  A
C1540      C1541   1.414       .  A
C1541      C1543   1.401       .  A
C1541      C1542   1.388       .  A
C1542      H1549   1.085       .  S
C1543      C1544   1.390       .  A
C1543      H1550   1.084       .  S
C1544      C1545   1.398       .  A
C1544      H1551   1.083       .  S
C1545      C1546   1.400       .  A
C1546      H1552   1.085       .  S
C1553      C1554   1.407       .  A
C1553      C1558   1.403       .  A
C1554      C1555   1.398       .  A
C1554      H1563   1.083       .  S
C1555      C1556   1.401       .  A
C1555      H1564   1.084       .  S
C1556      C1562   1.403       .  A
C1556      C1557   1.415       .  A
C1557      C1559   1.398       .  A
C1557      C1558   1.396       .  A
C1558      H1565   1.084       .  S
C1559      C1560   1.390       .  A
C1559      H1566   1.084       .  S
C1560      C1561   1.404       .  A
C1560      H1567   1.084       .  S
C1561      C1562   1.401       .  A
C1562      H1568   1.084       .  S
C1569      C1570   1.406       .  A
C1569      C1574   1.401       .  A
C1570      C1571   1.391       .  A
C1570      H1579   1.083       .  S
C1571      C1572   1.398       .  A
C1571      H1580   1.084       .  S
C1572      C1578   1.393       .  A
C1572      C1573   1.415       .  A
C1573      C1575   1.400       .  A
C1573      C1574   1.395       .  A
C1574      H1581   1.085       .  S
C1575      C1576   1.392       .  A
C1575      H1582   1.084       .  S
C1576      C1577   1.403       .  A
C1576      H1583   1.083       .  S
C1577      C1578   1.399       .  A
C1578      H1584   1.085       .  S
C1585      C1586   1.402       .  A
C1585      C1590   1.404       .  A
C1586      C1587   1.393       .  A
C1586      H1595   1.083       .  S
C1587      C1588   1.402       .  A
C1587      H1596   1.084       .  S
C1588      C1594   1.391       .  A
C1588      C1589   1.413       .  A
C1589      C1591   1.405       .  A
C1589      C1590   1.393       .  A
C1590      H1597   1.085       .  S
C1591      C1592   1.396       .  A
C1591      H1598   1.084       .  S
C1592      C1593   1.398       .  A
C1592      H1599   1.083       .  S
C1593      C1594   1.400       .  A
C1594      H1600   1.086       .  S
C1601      C1602   1.404       .  A
C1601      C1606   1.407       .  A
C1602      C1603   1.402       .  A
C1602      H1611   1.083       .  S
C1603      C1604   1.405       .  A
C1603      H1612   1.083       .  S
C1604      C1610   1.407       .  A
C1604      C1605   1.412       .  A
C1605      C1607   1.401       .  A
C1605      C1606   1.402       .  A
C1606      H1613   1.085       .  S
C1607      C1608   1.396       .  A
C1607      H1614   1.084       .  S
C1608      C1609   1.407       .  A
C1608      H1615   1.083       .  S
C1609      C1610   1.411       .  A
C1610      H1616   1.084       .  S
C1617      C1618   1.411       .  A
C1617      C1622   1.419   1_554  A
C1618      C1619   1.409       .  A
C1618      H1627   1.083       .  S
C1619      C1620   1.406       .  A
C1619      H1628   1.083       .  S
C1620      C1626   1.427       .  A
C1620      C1621   1.414   1_554  A
C1621      C1623   1.407       .  A
C1621      C1622   1.429       .  A
C1622      H1629   1.084       .  S
C1623      C1624   1.410       .  A
C1623      H1630   1.083       .  S
C1624      C1625   1.411       .  A
C1624      H1631   1.083       .  S
C1625      C1626   1.420   1_556  A
C1626      H1632   1.083       .  S
C1633      C1634   1.405       .  A
C1633      C1638   1.405       .  A
C1634      C1635   1.393       .  A
C1634      H1643   1.083       .  S
C1635      C1636   1.399       .  A
C1635      H1644   1.084       .  S
C1636      C1642   1.400       .  A
C1636      C1637   1.415       .  A
C1637      C1639   1.401       .  A
C1637      C1638   1.403       .  A
C1638      H1645   1.084       .  S
C1639      C1640   1.396       .  A
C1639      H1646   1.084       .  S
C1640      C1641   1.407       .  A
C1640      H1647   1.083       .  S
C1641      C1642   1.402       .  A
C1642      H1648   1.084       .  S
C1649      C1650   1.409       .  A
C1649      C1654   1.403       .  A
C1650      C1651   1.397       .  A
C1650      H1659   1.083       .  S
C1651      C1652   1.400       .  A
C1651      H1660   1.084       .  S
C1652      C1658   1.406       .  A
C1652      C1653   1.416       .  A
C1653      C1655   1.398       .  A
C1653      C1654   1.401       .  A
C1654      H1661   1.084       .  S
C1655      C1656   1.392       .  A
C1655      H1662   1.084       .  S
C1656      C1657   1.405       .  A
C1656      H1663   1.084       .  S
C1657      C1658   1.402       .  A
C1658      H1664   1.084       .  S
C1665      C1666   1.410       .  A
C1665      C1670   1.420       .  A
C1666      C1667   1.407       .  A
C1666      H1675   1.083       .  S
C1667      C1668   1.405   1_554  A
C1667      H1676   1.083       .  S
C1668      C1674   1.424       .  A
C1668      C1669   1.414   1_556  A
C1669      C1671   1.409   1_554  A
C1669      C1670   1.429       .  A
C1670      H1677   1.083       .  S
C1671      C1672   1.412       .  A
C1671      H1678   1.083       .  S
C1672      C1673   1.409       .  A
C1672      H1679   1.083       .  S
C1673      C1674   1.417       .  A
C1674      H1680   1.084       .  S
C1681      C1682   1.406       .  A
C1681      C1686   1.401       .  A
C1682      C1683   1.391       .  A
C1682      H1691   1.083       .  S
C1683      C1684   1.399       .  A
C1683      H1692   1.084       .  S
C1684      C1690   1.394       .  A
C1684      C1685   1.414       .  A
C1685      C1687   1.399       .  A
C1685      C1686   1.394       .  A
C1686      H1693   1.084       .  S
C1687      C1688   1.392       .  A
C1687      H1694   1.084       .  S
C1688      C1689   1.406       .  A
C1688      H1695   1.083       .  S
C1689      C1690   1.402       .  A
C1690      H1696   1.085       .  S
C1697      C1698   1.397       .  A
C1697      C1702   1.402       .  A
C1698      C1699   1.389       .  A
C1698      H1707   1.084       .  S
C1699      C1700   1.401       .  A
C1699      H1708   1.084       .  S
C1700      C1706   1.388       .  A
C1700      C1701   1.412       .  A
C1701      C1703   1.404       .  A
C1701      C1702   1.397       .  A
C1702      H1709   1.085       .  S
C1703      C1704   1.399       .  A
C1703      H1710   1.084       .  S
C1704      C1705   1.404       .  A
C1704      H1711   1.083       .  S
C1705      C1706   1.405       .  A
C1706      H1712   1.084       .  S
C1713      C1714   1.410       .  A
C1713      C1718   1.423   1_554  A
C1714      C1715   1.400       .  A
C1714      H1723   1.083       .  S
C1715      C1716   1.401       .  A
C1715      H1724   1.084       .  S
C1716      C1722   1.419       .  A
C1716      C1717   1.414       .  A
C1717      C1719   1.412   1_554  A
C1717      C1718   1.434   1_554  A
C1718      H1725   1.083       .  S
C1719      C1720   1.417       .  A
C1719      H1726   1.083       .  S
C1720      C1721   1.409   1_556  A
C1720      H1727   1.083       .  S
C1721      C1722   1.413       .  A
C1722      H1728   1.084       .  S
C1729      C1730   1.401       .  A
C1729      C1734   1.403       .  A
C1730      C1731   1.393       .  A
C1730      H1739   1.083       .  S
C1731      C1732   1.402       .  A
C1731      H1740   1.084       .  S
C1732      C1738   1.389       .  A
C1732      C1733   1.412       .  A
C1733      C1735   1.401       .  A
C1733      C1734   1.388       .  A
C1734      H1741   1.085       .  S
C1735      C1736   1.391       .  A
C1735      H1742   1.084       .  S
C1736      C1737   1.402       .  A
C1736      H1743   1.083       .  S
C1737      C1738   1.404       .  A
C1738      H1744   1.085       .  S
C1745      C1746   1.406       .  A
C1745      C1750   1.403       .  A
C1746      C1747   1.391       .  A
C1746      H1755   1.083       .  S
C1747      C1748   1.398       .  A
C1747      H1756   1.084       .  S
C1748      C1754   1.394       .  A
C1748      C1749   1.416       .  A
C1749      C1751   1.401       .  A
C1749      C1750   1.396       .  A
C1750      H1757   1.084       .  S
C1751      C1752   1.394       .  A
C1751      H1758   1.084       .  S
C1752      C1753   1.401       .  A
C1752      H1759   1.084       .  S
C1753      C1754   1.395       .  A
C1754      H1760   1.085       .  S
C1761      C1762   1.412       .  A
C1761      C1766   1.425   1_556  A
C1762      C1763   1.412       .  A
C1762      H1771   1.083       .  S
C1763      C1764   1.408       .  A
C1763      H1772   1.083       .  S
C1764      C1770   1.431       .  A
C1764      C1765   1.412   1_556  A
C1765      C1767   1.410       .  A
C1765      C1766   1.433       .  A
C1766      H1773   1.083       .  S
C1767      C1768   1.414       .  A
C1767      H1774   1.083       .  S
C1768      C1769   1.413       .  A
C1768      H1775   1.083       .  S
C1769      C1770   1.423   1_554  A
C1770      H1776   1.083       .  S
C1777      C1778   1.408       .  A
C1777      C1782   1.403       .  A
C1778      C1779   1.398       .  A
C1778      H1787   1.083       .  S
C1779      C1780   1.401       .  A
C1779      H1788   1.084       .  S
C1780      C1786   1.407       .  A
C1780      C1781   1.415       .  A
C1781      C1783   1.397       .  A
C1781      C1782   1.401       .  A
C1782      H1789   1.084       .  S
C1783      C1784   1.392       .  A
C1783      H1790   1.084       .  S
C1784      C1785   1.409       .  A
C1784      H1791   1.083       .  S
C1785      C1786   1.405       .  A
C1786      H1792   1.084       .  S
C1793      C1794   1.408       .  A
C1793      C1798   1.402       .  A
C1794      C1795   1.389       .  A
C1794      H1803   1.083       .  S
C1795      C1796   1.396       .  A
C1795      H1804   1.084       .  S
C1796      C1802   1.396       .  A
C1796      C1797   1.415       .  A
C1797      C1799   1.399       .  A
C1797      C1798   1.402       .  A
C1798      H1805   1.084       .  S
C1799      C1800   1.395       .  A
C1799      H1806   1.084       .  S
C1800      C1801   1.408       .  A
C1800      H1807   1.083       .  S
C1801      C1802   1.400       .  A
C1802      H1808   1.084       .  S
C1809      C1810   1.409       .  A
C1809      C1814   1.416       .  A
C1810      C1811   1.417       .  A
C1810      H1819   1.083       .  S
C1811      C1812   1.412       .  A
C1811      H1820   1.083       .  S
C1812      C1818   1.430       .  A
C1812      C1813   1.413       .  A
C1813      C1815   1.403       .  A
C1813      C1814   1.414       .  A
C1814      H1821   1.084       .  S
C1815      C1816   1.400       .  A
C1815      H1822   1.084       .  S
C1816      C1817   1.406       .  A
C1816      H1823   1.084       .  S
C1817      C1818   1.420       .  A
C1818      H1824   1.083       .  S
C1825      C1826   1.413       .  A
C1825      C1830   1.419       .  A
C1826      C1827   1.411   1_545  A
C1826      H1835   1.083       .  S
C1827      C1828   1.407       .  A
C1827      H1836   1.083       .  S
C1828      C1834   1.432       .  A
C1828      C1829   1.414       .  A
C1829      C1831   1.404       .  A
C1829      C1830   1.429   1_565  A
C1830      H1837   1.083       .  S
C1831      C1832   1.408       .  A
C1831      H1838   1.083       .  S
C1832      C1833   1.414       .  A
C1832      H1839   1.083       .  S
C1833      C1834   1.421       .  A
C1834      H1840   1.083       .  S
C1841      C1842   1.402       .  A
C1841      C1846   1.395       .  A
C1842      C1843   1.391       .  A
C1842      H1851   1.084       .  S
C1843      C1844   1.399       .  A
C1843      H1852   1.084       .  S
C1844      C1850   1.394       .  A
C1844      C1845   1.418       .  A
C1845      C1847   1.399       .  A
C1845      C1846   1.395       .  A
C1846      H1853   1.085       .  S
C1847      C1848   1.392       .  A
C1847      H1854   1.084       .  S
C1848      C1849   1.401       .  A
C1848      H1855   1.084       .  S
C1849      C1850   1.396       .  A
C1850      H1856   1.085       .  S
C1857      C1858   1.400       .  A
C1857      C1862   1.401       .  A
C1858      C1859   1.392       .  A
C1858      H1867   1.083       .  S
C1859      C1860   1.402       .  A
C1859      H1868   1.084       .  S
C1860      C1866   1.390       .  A
C1860      C1861   1.415       .  A
C1861      C1863   1.403       .  A
C1861      C1862   1.391       .  A
C1862      H1869   1.085       .  S
C1863      C1864   1.393       .  A
C1863      H1870   1.084       .  S
C1864      C1865   1.398       .  A
C1864      H1871   1.083       .  S
C1865      C1866   1.397       .  A
C1866      H1872   1.086       .  S
C1873      C1874   1.405       .  A
C1873      C1878   1.398       .  A
C1874      C1875   1.404       .  A
C1874      H1883   1.083       .  S
C1875      C1876   1.407       .  A
C1875      H1884   1.083       .  S
C1876      C1882   1.410       .  A
C1876      C1877   1.414       .  A
C1877      C1879   1.394       .  A
C1877      C1878   1.394       .  A
C1878      H1885   1.085       .  S
C1879      C1880   1.387       .  A
C1879      H1886   1.084       .  S
C1880      C1881   1.408       .  A
C1880      H1887   1.083       .  S
C1881      C1882   1.410       .  A
C1882      H1888   1.084       .  S
C1889      C1890   1.411       .  A
C1889      C1894   1.416   1_565  A
C1890      C1891   1.399       .  A
C1890      H1899   1.083       .  S
C1891      C1892   1.400       .  A
C1891      H1900   1.084       .  S
C1892      C1898   1.412       .  A
C1892      C1893   1.414   1_565  A
C1893      C1895   1.408       .  A
C1893      C1894   1.422       .  A
C1894      H1901   1.083       .  S
C1895      C1896   1.409       .  A
C1895      H1902   1.083       .  S
C1896      C1897   1.407       .  A
C1896      H1903   1.083       .  S
C1897      C1898   1.411   1_545  A
C1898      H1904   1.084       .  S
C1905      C1906   1.408       .  A
C1905      C1910   1.399       .  A
C1906      C1907   1.389       .  A
C1906      H1915   1.083       .  S
C1907      C1908   1.396       .  A
C1907      H1916   1.084       .  S
C1908      C1914   1.394       .  A
C1908      C1909   1.417       .  A
C1909      C1911   1.398       .  A
C1909      C1910   1.394       .  A
C1910      H1917   1.085       .  S
C1911      C1912   1.390       .  A
C1911      H1918   1.084       .  S
C1912      C1913   1.402       .  A
C1912      H1919   1.084       .  S
C1913      C1914   1.392       .  A
C1914      H1920   1.085       .  S
C1921      C1922   1.403       .  A
C1921      C1926   1.405       .  A
C1922      C1923   1.394       .  A
C1922      H1931   1.083       .  S
C1923      C1924   1.401       .  A
C1923      H1932   1.084       .  S
C1924      C1930   1.394       .  A
C1924      C1925   1.414       .  A
C1925      C1927   1.402       .  A
C1925      C1926   1.392       .  A
C1926      H1933   1.084       .  S
C1927      C1928   1.392       .  A
C1927      H1934   1.084       .  S
C1928      C1929   1.399       .  A
C1928      H1935   1.084       .  S
C1929      C1930   1.398       .  A
C1930      H1936   1.085       .  S
C1937      C1938   1.405       .  A
C1937      C1942   1.405       .  A
C1938      C1939   1.390       .  A
C1938      H1947   1.084       .  S
C1939      C1940   1.397       .  A
C1939      H1948   1.084       .  S
C1940      C1946   1.397       .  A
C1940      C1941   1.415       .  A
C1941      C1943   1.405       .  A
C1941      C1942   1.407       .  A
C1942      H1949   1.084       .  S
C1943      C1944   1.401       .  A
C1943      H1950   1.083       .  S
C1944      C1945   1.404       .  A
C1944      H1951   1.083       .  S
C1945      C1946   1.400       .  A
C1946      H1952   1.085       .  S
C1953      C1954   1.408   1_565  A
C1953      C1958   1.419       .  A
C1954      C1955   1.407       .  A
C1954      H1963   1.083       .  S
C1955      C1956   1.406   1_545  A
C1955      H1964   1.083       .  S
C1956      C1962   1.424   1_565  A
C1956      C1957   1.414       .  A
C1957      C1959   1.409       .  A
C1957      C1958   1.428       .  A
C1958      H1965   1.084       .  S
C1959      C1960   1.411       .  A
C1959      H1966   1.083       .  S
C1960      C1961   1.410       .  A
C1960      H1967   1.083       .  S
C1961      C1962   1.418   1_565  A
C1962      H1968   1.084       .  S
C1969      C1970   1.404       .  A
C1969      C1974   1.405       .  A
C1970      C1971   1.393       .  A
C1970      H1979   1.084       .  S
C1971      C1972   1.399       .  A
C1971      H1980   1.084       .  S
C1972      C1978   1.402       .  A
C1972      C1973   1.415       .  A
C1973      C1975   1.402       .  A
C1973      C1974   1.409       .  A
C1974      H1981   1.084       .  S
C1975      C1976   1.400       .  A
C1975      H1982   1.084       .  S
C1976      C1977   1.408       .  A
C1976      H1983   1.083       .  S
C1977      C1978   1.405       .  A
C1978      H1984   1.084       .  S
C1985      C1986   1.406       .  A
C1985      C1990   1.401       .  A
C1986      C1987   1.401       .  A
C1986      H1995   1.083       .  S
C1987      C1988   1.404       .  A
C1987      H1996   1.083       .  S
C1988      C1994   1.405       .  A
C1988      C1989   1.413       .  A
C1989      C1991   1.395       .  A
C1989      C1990   1.391       .  A
C1990      H1997   1.085       .  S
C1991      C1992   1.386       .  A
C1991      H1998   1.084       .  S
C1992      C1993   1.407       .  A
C1992      H1999   1.083       .  S
C1993      C1994   1.407       .  A
C1994      H2000   1.084       .  S
C2001      C2002   1.411       .  A
C2001      C2006   1.415       .  A
C2002      C2003   1.402       .  A
C2002      H2011   1.083       .  S
C2003      C2004   1.402       .  A
C2003      H2012   1.083       .  S
C2004      C2010   1.418       .  A
C2004      C2005   1.415       .  A
C2005      C2007   1.405       .  A
C2005      C2006   1.421       .  A
C2006      H2013   1.084       .  S
C2007      C2008   1.406       .  A
C2007      H2014   1.083       .  S
C2008      C2009   1.411       .  A
C2008      H2015   1.083       .  S
C2009      C2010   1.412       .  A
C2010      H2016   1.084       .  S
C2017      C2018   1.410       .  A
C2017      C2022   1.418       .  A
C2018      C2019   1.409       .  A
C2018      H2027   1.083       .  S
C2019      C2020   1.407   1_545  A
C2019      H2028   1.083       .  S
C2020      C2026   1.426       .  A
C2020      C2021   1.414   1_565  A
C2021      C2023   1.406   1_545  A
C2021      C2022   1.425       .  A
C2022      H2029   1.084       .  S
C2023      C2024   1.408       .  A
C2023      H2030   1.083       .  S
C2024      C2025   1.409       .  A
C2024      H2031   1.083       .  S
C2025      C2026   1.417       .  A
C2026      H2032   1.084       .  S
C2033      C2034   1.403       .  A
C2033      C2038   1.405       .  A
C2034      C2035   1.394       .  A
C2034      H2043   1.083       .  S
C2035      C2036   1.402       .  A
C2035      H2044   1.084       .  S
C2036      C2042   1.393       .  A
C2036      C2037   1.414       .  A
C2037      C2039   1.403       .  A
C2037      C2038   1.392       .  A
C2038      H2045   1.085       .  S
C2039      C2040   1.393       .  A
C2039      H2046   1.084       .  S
C2040      C2041   1.397       .  A
C2040      H2047   1.083       .  S
C2041      C2042   1.398       .  A
C2042      H2048   1.085       .  S
C2049      C2050   1.406       .  A
C2049      C2054   1.402       .  A
C2050      C2051   1.391       .  A
C2050      H2059   1.083       .  S
C2051      C2052   1.398       .  A
C2051      H2060   1.084       .  S
C2052      C2058   1.394       .  A
C2052      C2053   1.414       .  A
C2053      C2055   1.399       .  A
C2053      C2054   1.395       .  A
C2054      H2061   1.084       .  S
C2055      C2056   1.392       .  A
C2055      H2062   1.084       .  S
C2056      C2057   1.406       .  A
C2056      H2063   1.083       .  S
C2057      C2058   1.401       .  A
C2058      H2064   1.085       .  S
C2065      C2066   1.406       .  A
C2065      C2070   1.405       .  A
C2066      C2067   1.406       .  A
C2066      H2075   1.083       .  S
C2067      C2068   1.407       .  A
C2067      H2076   1.083       .  S
C2068      C2074   1.411       .  A
C2068      C2069   1.412       .  A
C2069      C2071   1.396       .  A
C2069      C2070   1.394       .  A
C2070      H2077   1.084       .  S
C2071      C2072   1.387       .  A
C2071      H2078   1.084       .  S
C2072      C2073   1.407       .  A
C2072      H2079   1.083       .  S
C2073      C2074   1.411       .  A
C2074      H2080   1.084       .  S
C2081      C2082   1.408       .  A
C2081      C2086   1.412   1_545  A
C2082      C2083   1.416       .  A
C2082      H2091   1.083       .  S
C2083      C2084   1.412       .  A
C2083      H2092   1.083       .  S
C2084      C2090   1.431       .  A
C2084      C2085   1.414   1_545  A
C2085      C2087   1.400       .  A
C2085      C2086   1.413       .  A
C2086      H2093   1.085       .  S
C2087      C2088   1.397       .  A
C2087      H2094   1.084       .  S
C2088      C2089   1.408       .  A
C2088      H2095   1.084       .  S
C2089      C2090   1.420   1_565  A
C2090      H2096   1.083       .  S
C2097      C2098   1.395       .  A
C2097      C2102   1.399       .  A
C2098      C2099   1.391       .  A
C2098      H2107   1.083       .  S
C2099      C2100   1.403       .  A
C2099      H2108   1.084       .  S
C2100      C2106   1.388       .  A
C2100      C2101   1.413       .  A
C2101      C2103   1.404       .  A
C2101      C2102   1.392       .  A
C2102      H2109   1.085       .  S
C2103      C2104   1.396       .  A
C2103      H2110   1.084       .  S
C2104      C2105   1.402       .  A
C2104      H2111   1.083       .  S
C2105      C2106   1.403       .  A
C2106      H2112   1.085       .  S
C2113      C2114   1.401       .  A
C2113      C2118   1.405       .  A
C2114      C2115   1.393       .  A
C2114      H2123   1.083       .  S
C2115      C2116   1.402       .  A
C2115      H2124   1.084       .  S
C2116      C2122   1.392       .  A
C2116      C2117   1.413       .  A
C2117      C2119   1.404       .  A
C2117      C2118   1.396       .  A
C2118      H2125   1.085       .  S
C2119      C2120   1.396       .  A
C2119      H2126   1.084       .  S
C2120      C2121   1.402       .  A
C2120      H2127   1.083       .  S
C2121      C2122   1.405       .  A
C2122      H2128   1.085       .  S
C2129      C2130   1.405       .  A
C2129      C2134   1.405       .  A
C2130      C2131   1.394       .  A
C2130      H2139   1.084       .  S
C2131      C2132   1.400       .  A
C2131      H2140   1.084       .  S
C2132      C2138   1.404       .  A
C2132      C2133   1.416       .  A
C2133      C2135   1.402       .  A
C2133      C2134   1.410       .  A
C2134      H2141   1.084       .  S
C2135      C2136   1.400       .  A
C2135      H2142   1.083       .  S
C2136      C2137   1.408       .  A
C2136      H2143   1.083       .  S
C2137      C2138   1.406       .  A
C2138      H2144   1.084       .  S
C2145      C2146   1.411       .  A
C2145      C2150   1.416   1_565  A
C2146      C2147   1.408       .  A
C2146      H2155   1.083       .  S
C2147      C2148   1.406       .  A
C2147      H2156   1.083       .  S
C2148      C2154   1.425       .  A
C2148      C2149   1.414   1_565  A
C2149      C2151   1.404       .  A
C2149      C2150   1.422       .  A
C2150      H2157   1.084       .  S
C2151      C2152   1.406       .  A
C2151      H2158   1.083       .  S
C2152      C2153   1.411       .  A
C2152      H2159   1.083       .  S
C2153      C2154   1.419   1_545  A
C2154      H2160   1.083       .  S
C2161      C2162   1.406       .  A
C2161      C2166   1.403       .  A
C2162      C2163   1.405       .  A
C2162      H2171   1.083       .  S
C2163      C2164   1.407       .  A
C2163      H2172   1.083       .  S
C2164      C2170   1.409       .  A
C2164      C2165   1.413       .  A
C2165      C2167   1.396       .  A
C2165      C2166   1.392       .  A
C2166      H2173   1.084       .  S
C2167      C2168   1.386       .  A
C2167      H2174   1.084       .  S
C2168      C2169   1.406       .  A
C2168      H2175   1.083       .  S
C2169      C2170   1.410       .  A
C2170      H2176   1.084       .  S
C2177      C2178   1.409       .  A
C2177      C2182   1.413       .  A
C2178      C2179   1.415       .  A
C2178      H2187   1.083       .  S
C2179      C2180   1.412       .  A
C2179      H2188   1.083       .  S
C2180      C2186   1.429       .  A
C2180      C2181   1.414       .  A
C2181      C2183   1.401       .  A
C2181      C2182   1.413       .  A
C2182      H2189   1.084       .  S
C2183      C2184   1.398       .  A
C2183      H2190   1.084       .  S
C2184      C2185   1.405       .  A
C2184      H2191   1.084       .  S
C2185      C2186   1.418       .  A
C2186      H2192   1.083       .  S
C2193      C2194   1.404       .  A
C2193      C2198   1.400       .  A
C2194      C2195   1.402       .  A
C2194      H2203   1.083       .  S
C2195      C2196   1.405       .  A
C2195      H2204   1.083       .  S
C2196      C2202   1.405       .  A
C2196      C2197   1.413       .  A
C2197      C2199   1.396       .  A
C2197      C2198   1.392       .  A
C2198      H2205   1.085       .  S
C2199      C2200   1.387       .  A
C2199      H2206   1.084       .  S
C2200      C2201   1.406       .  A
C2200      H2207   1.083       .  S
C2201      C2202   1.408       .  A
C2202      H2208   1.084       .  S
C2209      C2210   1.407       .  A
C2209      C2214   1.411       .  A
C2210      C2211   1.411       .  A
C2210      H2219   1.083       .  S
C2211      C2212   1.408       .  A
C2211      H2220   1.083       .  S
C2212      C2218   1.425       .  A
C2212      C2213   1.415       .  A
C2213      C2215   1.401       .  A
C2213      C2214   1.417       .  A
C2214      H2221   1.084       .  S
C2215      C2216   1.401       .  A
C2215      H2222   1.084       .  S
C2216      C2217   1.412       .  A
C2216      H2223   1.083       .  S
C2217      C2218   1.417       .  A
C2218      H2224   1.083       .  S
C2225      C2226   1.411       .  A
C2225      C2230   1.418       .  A
C2226      C2227   1.411       .  A
C2226      H2235   1.083       .  S
C2227      C2228   1.408   1_455  A
C2227      H2236   1.083   1_455  S
C2228      C2234   1.428       .  A
C2228      C2229   1.413   1_655  A
C2229      C2231   1.405   1_455  A
C2229      C2230   1.423       .  A
C2230      H2237   1.084       .  S
C2231      C2232   1.406       .  A
C2231      H2238   1.083       .  S
C2232      C2233   1.411       .  A
C2232      H2239   1.083       .  S
C2233      C2234   1.420       .  A
C2234      H2240   1.083       .  S
C2241      C2242   1.406       .  A
C2241      C2246   1.400       .  A
C2242      C2243   1.390       .  A
C2242      H2251   1.083       .  S
C2243      C2244   1.397       .  A
C2243      H2252   1.084       .  S
C2244      C2250   1.394       .  A
C2244      C2245   1.415       .  A
C2245      C2247   1.398       .  A
C2245      C2246   1.395       .  A
C2246      H2253   1.085       .  S
C2247      C2248   1.391       .  A
C2247      H2254   1.084       .  S
C2248      C2249   1.407       .  A
C2248      H2255   1.083       .  S
C2249      C2250   1.399       .  A
C2250      H2256   1.085       .  S
C2257      C2258   1.402       .  A
C2257      C2262   1.404       .  A
C2258      C2259   1.394       .  A
C2258      H2267   1.083       .  S
C2259      C2260   1.403       .  A
C2259      H2268   1.084       .  S
C2260      C2266   1.391       .  A
C2260      C2261   1.412       .  A
C2261      C2263   1.401       .  A
C2261      C2262   1.389       .  A
C2262      H2269   1.085       .  S
C2263      C2264   1.391       .  A
C2263      H2270   1.084       .  S
C2264      C2265   1.402       .  A
C2264      H2271   1.083       .  S
C2265      C2266   1.405       .  A
C2266      H2272   1.084       .  S
C2273      C2274   1.404       .  A
C2273      C2278   1.405       .  A
C2274      C2275   1.389       .  A
C2274      H2283   1.084       .  S
C2275      C2276   1.397       .  A
C2275      H2284   1.084       .  S
C2276      C2282   1.397       .  A
C2276      C2277   1.416       .  A
C2277      C2279   1.404       .  A
C2277      C2278   1.408       .  A
C2278      H2285   1.084       .  S
C2279      C2280   1.401       .  A
C2279      H2286   1.083       .  S
C2280      C2281   1.405       .  A
C2280      H2287   1.083       .  S
C2281      C2282   1.400       .  A
C2282      H2288   1.085       .  S
C2289      C2290   1.404       .  A
C2289      C2294   1.398       .  A
C2290      C2291   1.403       .  A
C2290      H2299   1.083       .  S
C2291      C2292   1.406       .  A
C2291      H2300   1.083       .  S
C2292      C2298   1.410       .  A
C2292      C2293   1.416       .  A
C2293      C2295   1.397       .  A
C2293      C2294   1.397       .  A
C2294      H2301   1.085       .  S
C2295      C2296   1.389       .  A
C2295      H2302   1.084       .  S
C2296      C2297   1.403       .  A
C2296      H2303   1.084       .  S
C2297      C2298   1.406       .  A
C2298      H2304   1.084       .  S
C2305      C2306   1.407   1_455  A
C2305      C2310   1.410       .  A
C2306      C2307   1.409       .  A
C2306      H2315   1.083       .  S
C2307      C2308   1.408       .  A
C2307      H2316   1.083       .  S
C2308      C2314   1.423       .  A
C2308      C2309   1.415   1_655  A
C2309      C2311   1.402       .  A
C2309      C2310   1.415       .  A
C2310      H2317   1.084       .  S
C2311      C2312   1.400       .  A
C2311      H2318   1.084       .  S
C2312      C2313   1.410       .  A
C2312      H2319   1.083       .  S
C2313      C2314   1.416   1_455  A
C2314      H2320   1.084       .  S
C2321      C2322   1.403       .  A
C2321      C2326   1.406       .  A
C2322      C2323   1.392       .  A
C2322      H2331   1.083       .  S
C2323      C2324   1.402       .  A
C2323      H2332   1.084       .  S
C2324      C2330   1.390       .  A
C2324      C2325   1.411       .  A
C2325      C2327   1.403       .  A
C2325      C2326   1.391       .  A
C2326      H2333   1.084       .  S
C2327      C2328   1.394       .  A
C2327      H2334   1.084       .  S
C2328      C2329   1.401       .  A
C2328      H2335   1.083       .  S
C2329      C2330   1.405       .  A
C2330      H2336   1.085       .  S
C2337      C2338   1.406       .  A
C2337      C2342   1.403       .  A
C2338      C2339   1.392       .  A
C2338      H2347   1.083       .  S
C2339      C2340   1.399       .  A
C2339      H2348   1.084       .  S
C2340      C2346   1.396       .  A
C2340      C2341   1.414       .  A
C2341      C2343   1.399       .  A
C2341      C2342   1.396       .  A
C2342      H2349   1.084       .  S
C2343      C2344   1.392       .  A
C2343      H2350   1.084       .  S
C2344      C2345   1.407       .  A
C2344      H2351   1.083       .  S
C2345      C2346   1.402       .  A
C2346      H2352   1.084       .  S
C2353      C2354   1.404       .  A
C2353      C2358   1.405       .  A
C2354      C2355   1.388       .  A
C2354      H2363   1.084       .  S
C2355      C2356   1.396       .  A
C2355      H2364   1.084       .  S
C2356      C2362   1.394       .  A
C2356      C2357   1.416       .  A
C2357      C2359   1.405       .  A
C2357      C2358   1.407       .  A
C2358      H2365   1.084       .  S
C2359      C2360   1.402       .  A
C2359      H2366   1.083       .  S
C2360      C2361   1.404       .  A
C2360      H2367   1.083       .  S
C2361      C2362   1.399       .  A
C2362      H2368   1.085       .  S
C2369      C2370   1.403       .  A
C2369      C2374   1.400       .  A
C2370      C2371   1.403       .  A
C2370      H2379   1.083       .  S
C2371      C2372   1.406       .  A
C2371      H2380   1.083       .  S
C2372      C2378   1.407       .  A
C2372      C2373   1.414       .  A
C2373      C2375   1.397       .  A
C2373      C2374   1.396       .  A
C2374      H2381   1.085       .  S
C2375      C2376   1.390       .  A
C2375      H2382   1.084       .  S
C2376      C2377   1.407       .  A
C2376      H2383   1.083       .  S
C2377      C2378   1.410       .  A
C2378      H2384   1.084       .  S
C2385      C2386   1.411       .  A
C2385      C2390   1.418   1_455  A
C2386      C2387   1.407       .  A
C2386      H2395   1.083       .  S
C2387      C2388   1.405       .  A
C2387      H2396   1.083       .  S
C2388      C2394   1.425       .  A
C2388      C2389   1.414   1_455  A
C2389      C2391   1.406       .  A
C2389      C2390   1.425       .  A
C2390      H2397   1.084       .  S
C2391      C2392   1.408       .  A
C2391      H2398   1.083       .  S
C2392      C2393   1.411       .  A
C2392      H2399   1.083       .  S
C2393      C2394   1.418   1_655  A
C2394      H2400   1.084       .  S
C2401      C2402   1.406       .  A
C2401      C2406   1.406       .  A
C2402      C2403   1.391       .  A
C2402      H2411   1.083       .  S
C2403      C2404   1.399       .  A
C2403      H2412   1.084       .  S
C2404      C2410   1.397       .  A
C2404      C2405   1.414       .  A
C2405      C2407   1.402       .  A
C2405      C2406   1.402       .  A
C2406      H2413   1.084       .  S
C2407      C2408   1.398       .  A
C2407      H2414   1.084       .  S
C2408      C2409   1.407       .  A
C2408      H2415   1.083       .  S
C2409      C2410   1.403       .  A
C2410      H2416   1.084       .  S
C2417      C2418   1.408       .  A
C2417      C2422   1.409       .  A
C2418      C2419   1.391       .  A
C2418      H2427   1.083       .  S
C2419      C2420   1.398       .  A
C2419      H2428   1.084       .  S
C2420      C2426   1.398       .  A
C2420      C2421   1.414       .  A
C2421      C2423   1.406       .  A
C2421      C2422   1.407       .  A
C2422      H2429   1.084       .  S
C2423      C2424   1.402       .  A
C2423      H2430   1.083       .  S
C2424      C2425   1.402       .  A
C2424      H2431   1.083       .  S
C2425      C2426   1.400       .  A
C2426      H2432   1.085       .  S
C2433      C2434   1.409       .  A
C2433      C2438   1.416       .  A
C2434      C2435   1.400       .  A
C2434      H2443   1.083       .  S
C2435      C2436   1.402       .  A
C2435      H2444   1.084       .  S
C2436      C2442   1.411       .  A
C2436      C2437   1.413       .  A
C2437      C2439   1.409       .  A
C2437      C2438   1.419       .  A
C2438      H2445   1.084       .  S
C2439      C2440   1.409       .  A
C2439      H2446   1.083       .  S
C2440      C2441   1.406       .  A
C2440      H2447   1.083       .  S
C2441      C2442   1.410       .  A
C2442      H2448   1.084       .  S
C2449      C2450   1.412       .  A
C2449      C2454   1.417       .  A
C2450      C2451   1.409       .  A
C2450      H2459   1.083       .  S
C2451      C2452   1.406   1_554  A
C2451      H2460   1.083       .  S
C2452      C2458   1.428       .  A
C2452      C2453   1.414   1_556  A
C2453      C2455   1.403   1_554  A
C2453      C2454   1.424       .  A
C2454      H2461   1.084       .  S
C2455      C2456   1.405       .  A
C2455      H2462   1.084       .  S
C2456      C2457   1.413       .  A
C2456      H2463   1.083       .  S
C2457      C2458   1.419       .  A
C2458      H2464   1.083       .  S
C2465      C2466   1.400       .  A
C2465      C2470   1.401       .  A
C2466      C2467   1.391       .  A
C2466      H2475   1.083       .  S
C2467      C2468   1.400       .  A
C2467      H2476   1.084       .  S
C2468      C2474   1.392       .  A
C2468      C2469   1.416       .  A
C2469      C2471   1.404       .  A
C2469      C2470   1.396       .  A
C2470      H2477   1.085       .  S
C2471      C2472   1.395       .  A
C2471      H2478   1.084       .  S
C2472      C2473   1.399       .  A
C2472      H2479   1.083       .  S
C2473      C2474   1.396       .  A
C2474      H2480   1.086       .  S
C2481      C2482   1.402       .  A
C2481      C2486   1.397       .  A
C2482      C2483   1.393       .  A
C2482      H2491   1.084       .  S
C2483      C2484   1.400       .  A
C2483      H2492   1.084       .  S
C2484      C2490   1.397       .  A
C2484      C2485   1.417       .  A
C2485      C2487   1.399       .  A
C2485      C2486   1.395       .  A
C2486      H2493   1.085       .  S
C2487      C2488   1.392       .  A
C2487      H2494   1.084       .  S
C2488      C2489   1.401       .  A
C2488      H2495   1.084       .  S
C2489      C2490   1.398       .  A
C2490      H2496   1.085       .  S
C2497      C2498   1.409       .  A
C2497      C2502   1.411       .  A
C2498      C2499   1.387       .  A
C2498      H2507   1.083       .  S
C2499      C2500   1.394       .  A
C2499      H2508   1.084       .  S
C2500      C2506   1.397       .  A
C2500      C2501   1.414       .  A
C2501      C2503   1.406       .  A
C2501      C2502   1.415       .  A
C2502      H2509   1.084       .  S
C2503      C2504   1.406       .  A
C2503      H2510   1.083       .  S
C2504      C2505   1.409       .  A
C2504      H2511   1.083       .  S
C2505      C2506   1.402       .  A
C2506      H2512   1.084       .  S
C2513      C2514   1.408   1_556  A
C2513      C2518   1.413       .  A
C2514      C2515   1.413       .  A
C2514      H2523   1.083       .  S
C2515      C2516   1.410       .  A
C2515      H2524   1.083       .  S
C2516      C2522   1.429       .  A
C2516      C2517   1.414   1_554  A
C2517      C2519   1.402       .  A
C2517      C2518   1.418       .  A
C2518      H2525   1.084       .  S
C2519      C2520   1.401       .  A
C2519      H2526   1.084       .  S
C2520      C2521   1.411       .  A
C2520      H2527   1.083       .  S
C2521      C2522   1.419   1_556  A
C2522      H2528   1.083       .  S
C2529      C2530   1.404       .  A
C2529      C2534   1.397       .  A
C2530      C2531   1.393       .  A
C2530      H2539   1.084       .  S
C2531      C2532   1.400       .  A
C2531      H2540   1.084       .  S
C2532      C2538   1.399       .  A
C2532      C2533   1.418       .  A
C2533      C2535   1.398       .  A
C2533      C2534   1.395       .  A
C2534      H2541   1.085       .  S
C2535      C2536   1.390       .  A
C2535      H2542   1.084       .  S
C2536      C2537   1.401       .  A
C2536      H2543   1.084       .  S
C2537      C2538   1.396       .  A
C2538      H2544   1.085       .  S
C2545      C2546   1.400       .  A
C2545      C2550   1.401       .  A
C2546      C2547   1.393       .  A
C2546      H2555   1.083       .  S
C2547      C2548   1.402       .  A
C2547      H2556   1.084       .  S
C2548      C2554   1.389       .  A
C2548      C2549   1.414       .  A
C2549      C2551   1.404       .  A
C2549      C2550   1.390       .  A
C2550      H2557   1.085       .  S
C2551      C2552   1.393       .  A
C2551      H2558   1.084       .  S
C2552      C2553   1.397       .  A
C2552      H2559   1.083       .  S
C2553      C2554   1.399       .  A
C2554      H2560   1.086       .  S
C2561      C2562   1.405       .  A
C2561      C2566   1.408       .  A
C2562      C2563   1.393       .  A
C2562      H2571   1.083       .  S
C2563      C2564   1.400       .  A
C2563      H2572   1.084       .  S
C2564      C2570   1.398       .  A
C2564      C2565   1.413       .  A
C2565      C2567   1.404       .  A
C2565      C2566   1.405       .  A
C2566      H2573   1.084       .  S
C2567      C2568   1.401       .  A
C2567      H2574   1.083       .  S
C2568      C2569   1.406       .  A
C2568      H2575   1.083       .  S
C2569      C2570   1.407       .  A
C2570      H2576   1.084       .  S
C2577      C2578   1.413       .  A
C2577      C2582   1.420       .  A
C2578      C2579   1.407       .  A
C2578      H2587   1.083       .  S
C2579      C2580   1.405       .  A
C2579      H2588   1.084       .  S
C2580      C2586   1.426       .  A
C2580      C2581   1.413       .  A
C2581      C2583   1.407       .  A
C2581      C2582   1.428       .  A
C2582      H2589   1.083       .  S
C2583      C2584   1.411       .  A
C2583      H2590   1.083       .  S
C2584      C2585   1.411       .  A
C2584      H2591   1.083       .  S
C2585      C2586   1.419       .  A
C2586      H2592   1.084       .  S
C2593      C2594   1.407       .  A
C2593      C2598   1.402       .  A
C2594      C2595   1.392       .  A
C2594      H2603   1.083       .  S
C2595      C2596   1.398       .  A
C2595      H2604   1.084       .  S
C2596      C2602   1.400       .  A
C2596      C2597   1.416       .  A
C2597      C2599   1.400       .  A
C2597      C2598   1.403       .  A
C2598      H2605   1.084       .  S
C2599      C2600   1.395       .  A
C2599      H2606   1.084       .  S
C2600      C2601   1.406       .  A
C2600      H2607   1.083       .  S
C2601      C2602   1.400       .  A
C2602      H2608   1.085       .  S
C2609      C2610   1.407       .  A
C2609      C2614   1.409       .  A
C2610      C2611   1.384       .  A
C2610      H2619   1.083       .  S
C2611      C2612   1.394       .  A
C2611      H2620   1.084       .  S
C2612      C2618   1.390       .  A
C2612      C2613   1.413       .  A
C2613      C2615   1.406       .  A
C2613      C2614   1.408       .  A
C2614      H2621   1.084       .  S
C2615      C2616   1.404       .  A
C2615      H2622   1.083       .  S
C2616      C2617   1.407       .  A
C2616      H2623   1.083       .  S
C2617      C2618   1.400       .  A
C2618      H2624   1.085       .  S
C2625      C2626   1.405       .  A
C2625      C2630   1.406       .  A
C2626      C2627   1.389       .  A
C2626      H2635   1.083       .  S
C2627      C2628   1.398       .  A
C2627      H2636   1.084       .  S
C2628      C2634   1.391       .  A
C2628      C2629   1.412       .  A
C2629      C2631   1.403       .  A
C2629      C2630   1.400       .  A
C2630      H2637   1.084       .  S
C2631      C2632   1.398       .  A
C2631      H2638   1.084       .  S
C2632      C2633   1.405       .  A
C2632      H2639   1.083       .  S
C2633      C2634   1.403       .  A
C2634      H2640   1.084       .  S
C2641      C2642   1.406       .  A
C2641      C2646   1.404       .  A
C2642      C2643   1.391       .  A
C2642      H2651   1.083       .  S
C2643      C2644   1.398       .  A
C2643      H2652   1.084       .  S
C2644      C2650   1.396       .  A
C2644      C2645   1.414       .  A
C2645      C2647   1.401       .  A
C2645      C2646   1.401       .  A
C2646      H2653   1.084       .  S
C2647      C2648   1.396       .  A
C2647      H2654   1.084       .  S
C2648      C2649   1.407       .  A
C2648      H2655   1.083       .  S
C2649      C2650   1.402       .  A
C2650      H2656   1.084       .  S
C2657      C2658   1.410       .  A
C2657      C2662   1.411       .  A
C2658      C2659   1.407       .  A
C2658      H2667   1.083       .  S
C2659      C2660   1.406       .  A
C2659      H2668   1.083       .  S
C2660      C2666   1.421       .  A
C2660      C2661   1.414       .  A
C2661      C2663   1.401       .  A
C2661      C2662   1.413       .  A
C2662      H2669   1.084       .  S
C2663      C2664   1.399       .  A
C2663      H2670   1.084       .  S
C2664      C2665   1.410       .  A
C2664      H2671   1.083       .  S
C2665      C2666   1.416       .  A
C2666      H2672   1.084       .  S
C2673      C2674   1.411       .  A
C2673      C2678   1.416       .  A
C2674      C2675   1.406       .  A
C2674      H2683   1.083       .  S
C2675      C2676   1.405   1_556  A
C2675      H2684   1.083       .  S
C2676      C2682   1.422       .  A
C2676      C2677   1.414   1_554  A
C2677      C2679   1.404   1_556  A
C2677      C2678   1.421       .  A
C2678      H2685   1.084       .  S
C2679      C2680   1.405       .  A
C2679      H2686   1.084       .  S
C2680      C2681   1.411       .  A
C2680      H2687   1.083       .  S
C2681      C2682   1.417       .  A
C2682      H2688   1.084       .  S
C2689      C2690   1.406       .  A
C2689      C2694   1.402       .  A
C2690      C2691   1.390       .  A
C2690      H2699   1.083       .  S
C2691      C2692   1.397       .  A
C2691      H2700   1.084       .  S
C2692      C2698   1.392       .  A
C2692      C2693   1.415       .  A
C2693      C2695   1.400       .  A
C2693      C2694   1.395       .  A
C2694      H2701   1.084       .  S
C2695      C2696   1.392       .  A
C2695      H2702   1.084       .  S
C2696      C2697   1.403       .  A
C2696      H2703   1.084       .  S
C2697      C2698   1.396       .  A
C2698      H2704   1.085       .  S
C2705      C2706   1.400       .  A
C2705      C2710   1.404       .  A
C2706      C2707   1.394       .  A
C2706      H2715   1.083       .  S
C2707      C2708   1.402       .  A
C2707      H2716   1.084       .  S
C2708      C2714   1.390       .  A
C2708      C2709   1.413       .  A
C2709      C2711   1.406       .  A
C2709      C2710   1.393       .  A
C2710      H2717   1.085       .  S
C2711      C2712   1.397       .  A
C2711      H2718   1.084       .  S
C2712      C2713   1.397       .  A
C2712      H2719   1.083       .  S
C2713      C2714   1.399       .  A
C2714      H2720   1.086       .  S
C2721      C2722   1.402       .  A
C2721      C2726   1.398       .  A
C2722      C2723   1.406       .  A
C2722      H2731   1.083       .  S
C2723      C2724   1.409       .  A
C2723      H2732   1.083       .  S
C2724      C2730   1.410       .  A
C2724      C2725   1.415       .  A
C2725      C2727   1.397       .  A
C2725      C2726   1.392       .  A
C2726      H2733   1.086       .  S
C2727      C2728   1.388       .  A
C2727      H2734   1.084       .  S
C2728      C2729   1.401       .  A
C2728      H2735   1.084       .  S
C2729      C2730   1.408       .  A
C2730      H2736   1.084       .  S
C2737      C2738   1.406       .  A
C2737      C2742   1.411   1_556  A
C2738      C2739   1.408       .  A
C2738      H2747   1.083       .  S
C2739      C2740   1.408       .  A
C2739      H2748   1.083       .  S
C2740      C2746   1.421       .  A
C2740      C2741   1.413   1_556  A
C2741      C2743   1.403       .  A
C2741      C2742   1.414       .  A
C2742      H2749   1.084       .  S
C2743      C2744   1.402       .  A
C2743      H2750   1.084       .  S
C2744      C2745   1.410       .  A
C2744      H2751   1.083       .  S
C2745      C2746   1.417   1_554  A
C2746      H2752   1.084       .  S
C2753      C2754   1.401       .  A
C2753      C2758   1.396       .  A
C2754      C2755   1.390       .  A
C2754      H2763   1.084       .  S
C2755      C2756   1.398       .  A
C2755      H2764   1.084       .  S
C2756      C2762   1.395       .  A
C2756      C2757   1.417       .  A
C2757      C2759   1.399       .  A
C2757      C2758   1.399       .  A
C2758      H2765   1.085       .  S
C2759      C2760   1.393       .  A
C2759      H2766   1.084       .  S
C2760      C2761   1.405       .  A
C2760      H2767   1.083       .  S
C2761      C2762   1.399       .  A
C2762      H2768   1.085       .  S
C2769      C2770   1.399       .  A
C2769      C2774   1.399       .  A
C2770      C2771   1.394       .  A
C2770      H2779   1.083       .  S
C2771      C2772   1.403       .  A
C2771      H2780   1.084       .  S
C2772      C2778   1.391       .  A
C2772      C2773   1.415       .  A
C2773      C2775   1.402       .  A
C2773      C2774   1.389       .  A
C2774      H2781   1.086       .  S
C2775      C2776   1.391       .  A
C2775      H2782   1.084       .  S
C2776      C2777   1.399       .  A
C2776      H2783   1.083       .  S
C2777      C2778   1.399       .  A
C2778      H2784   1.085       .  S
C2785      C2786   1.406       .  A
C2785      C2790   1.402       .  A
C2786      C2787   1.397       .  A
C2786      H2795   1.083       .  S
C2787      C2788   1.401       .  A
C2787      H2796   1.084       .  S
C2788      C2794   1.402       .  A
C2788      C2789   1.414       .  A
C2789      C2791   1.396       .  A
C2789      C2790   1.394       .  A
C2790      H2797   1.085       .  S
C2791      C2792   1.388       .  A
C2791      H2798   1.084       .  S
C2792      C2793   1.408       .  A
C2792      H2799   1.083       .  S
C2793      C2794   1.403       .  A
C2794      H2800   1.084       .  S
C2801      C2802   1.409       .  A
C2801      C2806   1.419   1_556  A
C2802      C2803   1.397       .  A
C2802      H2811   1.083       .  S
C2803      C2804   1.399       .  A
C2803      H2812   1.084       .  S
C2804      C2810   1.412       .  A
C2804      C2805   1.414   1_556  A
C2805      C2807   1.411       .  A
C2805      C2806   1.428       .  A
C2806      H2813   1.083       .  S
C2807      C2808   1.414       .  A
C2807      H2814   1.083       .  S
C2808      C2809   1.408       .  A
C2808      H2815   1.083       .  S
C2809      C2810   1.410   1_554  A
C2810      H2816   1.084       .  S
C2817      C2818   1.408       .  A
C2817      C2822   1.418   1_556  A
C2818      C2819   1.402       .  A
C2818      H2827   1.083       .  S
C2819      C2820   1.404       .  A
C2819      H2828   1.084       .  S
C2820      C2826   1.416       .  A
C2820      C2821   1.413   1_556  A
C2821      C2823   1.408       .  A
C2821      C2822   1.422       .  A
C2822      H2829   1.084       .  S
C2823      C2824   1.410       .  A
C2823      H2830   1.083       .  S
C2824      C2825   1.410       .  A
C2824      H2831   1.083       .  S
C2825      C2826   1.413   1_554  A
C2826      H2832   1.084       .  S
C2833      C2834   1.409       .  A
C2833      C2838   1.404       .  A
C2834      C2835   1.401       .  A
C2834      H2843   1.083       .  S
C2835      C2836   1.403       .  A
C2835      H2844   1.084       .  S
C2836      C2842   1.410       .  A
C2836      C2837   1.414       .  A
C2837      C2839   1.397       .  A
C2837      C2838   1.402       .  A
C2838      H2845   1.084       .  S
C2839      C2840   1.392       .  A
C2839      H2846   1.084       .  S
C2840      C2841   1.408       .  A
C2840      H2847   1.083       .  S
C2841      C2842   1.409       .  A
C2842      H2848   1.084       .  S
C2849      C2850   1.404       .  A
C2849      C2854   1.403       .  A
C2850      C2851   1.392       .  A
C2850      H2859   1.084       .  S
C2851      C2852   1.399       .  A
C2851      H2860   1.084       .  S
C2852      C2858   1.399       .  A
C2852      C2853   1.415       .  A
C2853      C2855   1.402       .  A
C2853      C2854   1.404       .  A
C2854      H2861   1.084       .  S
C2855      C2856   1.398       .  A
C2855      H2862   1.084       .  S
C2856      C2857   1.406       .  A
C2856      H2863   1.083       .  S
C2857      C2858   1.404       .  A
C2858      H2864   1.084       .  S
C2865      C2866   1.408       .  A
C2865      C2870   1.408       .  A
C2866      C2867   1.411       .  A
C2866      H2875   1.083       .  S
C2867      C2868   1.409       .  A
C2867      H2876   1.083       .  S
C2868      C2874   1.425       .  A
C2868      C2869   1.414       .  A
C2869      C2871   1.399       .  A
C2869      C2870   1.412       .  A
C2870      H2877   1.084       .  S
C2871      C2872   1.397       .  A
C2871      H2878   1.084       .  S
C2872      C2873   1.410       .  A
C2872      H2879   1.083       .  S
C2873      C2874   1.417       .  A
C2874      H2880   1.083       .  S
C2881      C2882   1.407       .  A
C2881      C2886   1.404       .  A
C2882      C2883   1.399       .  A
C2882      H2891   1.083       .  S
C2883      C2884   1.402       .  A
C2883      H2892   1.084       .  S
C2884      C2890   1.405       .  A
C2884      C2885   1.414       .  A
C2885      C2887   1.398       .  A
C2885      C2886   1.398       .  A
C2886      H2893   1.084       .  S
C2887      C2888   1.391       .  A
C2887      H2894   1.084       .  S
C2888      C2889   1.408       .  A
C2888      H2895   1.083       .  S
C2889      C2890   1.406       .  A
C2890      H2896   1.084       .  S
C2897      C2898   1.409       .  A
C2897      C2902   1.407       .  A
C2898      C2899   1.396       .  A
C2898      H2907   1.083       .  S
C2899      C2900   1.399       .  A
C2899      H2908   1.084       .  S
C2900      C2906   1.406       .  A
C2900      C2901   1.415       .  A
C2901      C2903   1.402       .  A
C2901      C2902   1.409       .  A
C2902      H2909   1.084       .  S
C2903      C2904   1.400       .  A
C2903      H2910   1.084       .  S
C2904      C2905   1.408       .  A
C2904      H2911   1.083       .  S
C2905      C2906   1.407       .  A
C2906      H2912   1.084       .  S
C2913      C2914   1.412       .  A
C2913      C2918   1.415       .  A
C2914      C2915   1.407       .  A
C2914      H2923   1.083       .  S
C2915      C2916   1.405       .  A
C2915      H2924   1.083       .  S
C2916      C2922   1.425       .  A
C2916      C2917   1.415       .  A
C2917      C2919   1.403       .  A
C2917      C2918   1.422       .  A
C2918      H2925   1.084       .  S
C2919      C2920   1.405       .  A
C2919      H2926   1.084       .  S
C2920      C2921   1.413       .  A
C2920      H2927   1.083       .  S
C2921      C2922   1.417       .  A
C2922      H2928   1.083       .  S
C2929      C2930   1.410       .  A
C2929      C2934   1.421       .  A
C2930      C2931   1.408       .  A
C2930      H2939   1.083       .  S
C2931      C2932   1.406   1_545  A
C2931      H2940   1.083       .  S
C2932      C2938   1.426       .  A
C2932      C2933   1.414   1_565  A
C2933      C2935   1.409   1_545  A
C2933      C2934   1.430       .  A
C2934      H2941   1.083       .  S
C2935      C2936   1.411       .  A
C2935      H2942   1.083       .  S
C2936      C2937   1.410       .  A
C2936      H2943   1.081       .  S
C2937      C2938   1.419       .  A
C2938      H2944   1.084       .  S
C2945      C2946   1.403       .  A
C2945      C2950   1.397       .  A
C2946      C2947   1.393       .  A
C2946      H2955   1.084       .  S
C2947      C2948   1.400       .  A
C2947      H2956   1.084       .  S
C2948      C2954   1.397       .  A
C2948      C2949   1.417       .  A
C2949      C2951   1.399       .  A
C2949      C2950   1.396       .  A
C2950      H2957   1.085       .  S
C2951      C2952   1.392       .  A
C2951      H2958   1.084       .  S
C2952      C2953   1.401       .  A
C2952      H2959   1.084       .  S
C2953      C2954   1.397       .  A
C2954      H2960   1.085       .  S
C2961      C2962   1.406       .  A
C2961      C2966   1.400       .  A
C2962      C2963   1.394       .  A
C2962      H2971   1.083       .  S
C2963      C2964   1.399       .  A
C2963      H2972   1.084       .  S
C2964      C2970   1.400       .  A
C2964      C2965   1.415       .  A
C2965      C2967   1.397       .  A
C2965      C2966   1.399       .  A
C2966      H2973   1.085       .  S
C2967      C2968   1.392       .  A
C2967      H2974   1.084       .  S
C2968      C2969   1.408       .  A
C2968      H2975   1.083       .  S
C2969      C2970   1.403       .  A
C2970      H2976   1.084       .  S
C2977      C2978   1.405       .  A
C2977      C2982   1.410       .  A
C2978      C2979   1.391       .  A
C2978      H2987   1.083       .  S
C2979      C2980   1.398       .  A
C2979      H2988   1.084       .  S
C2980      C2986   1.397       .  A
C2980      C2981   1.413       .  A
C2981      C2983   1.406       .  A
C2981      C2982   1.408       .  A
C2982      H2989   1.084       .  S
C2983      C2984   1.403       .  A
C2983      H2990   1.083       .  S
C2984      C2985   1.406       .  A
C2984      H2991   1.083       .  S
C2985      C2986   1.404       .  A
C2986      H2992   1.085       .  S
C2993      C2994   1.406       .  A
C2993      C2998   1.402       .  A
C2994      C2995   1.399       .  A
C2994      H3003   1.083       .  S
C2995      C2996   1.402       .  A
C2995      H3004   1.084       .  S
C2996      C3002   1.406       .  A
C2996      C2997   1.415       .  A
C2997      C2999   1.397       .  A
C2997      C2998   1.399       .  A
C2998      H3005   1.084       .  S
C2999      C3000   1.391       .  A
C2999      H3006   1.084       .  S
C3000      C3001   1.407       .  A
C3000      H3007   1.083       .  S
C3001      C3002   1.405       .  A
C3002      H3008   1.084       .  S
C3009      C3010   1.409       .  A
C3009      C3014   1.414   1_545  A
C3010      C3011   1.402       .  A
C3010      H3019   1.083       .  S
C3011      C3012   1.403       .  A
C3011      H3020   1.083       .  S
C3012      C3018   1.415       .  A
C3012      C3013   1.414   1_545  A
C3013      C3015   1.404       .  A
C3013      C3014   1.416       .  A
C3014      H3021   1.084       .  S
C3015      C3016   1.403       .  A
C3015      H3022   1.083       .  S
C3016      C3017   1.410       .  A
C3016      H3023   1.083       .  S
C3017      C3018   1.412   1_565  A
C3018      H3024   1.084       .  S
C3025      C3026   1.399       .  A
C3025      C3030   1.397       .  A
C3026      C3027   1.395       .  A
C3026      H3035   1.083       .  S
C3027      C3028   1.404       .  A
C3027      H3036   1.084       .  S
C3028      C3034   1.395       .  A
C3028      C3029   1.415       .  A
C3029      C3031   1.401       .  A
C3029      C3030   1.392       .  A
C3030      H3037   1.086       .  S
C3031      C3032   1.391       .  A
C3031      H3038   1.084       .  S
C3032      C3033   1.401       .  A
C3032      H3039   1.083       .  S
C3033      C3034   1.402       .  A
C3034      H3040   1.085       .  S
C3041      C3042   1.405       .  A
C3041      C3046   1.401       .  A
C3042      C3043   1.391       .  A
C3042      H3051   1.083       .  S
C3043      C3044   1.399       .  A
C3043      H3052   1.084       .  S
C3044      C3050   1.392       .  A
C3044      C3045   1.414       .  A
C3045      C3047   1.401       .  A
C3045      C3046   1.392       .  A
C3046      H3053   1.085       .  S
C3047      C3048   1.392       .  A
C3047      H3054   1.084       .  S
C3048      C3049   1.400       .  A
C3048      H3055   1.083       .  S
C3049      C3050   1.398       .  A
C3050      H3056   1.086       .  S
C3057      C3058   1.405       .  A
C3057      C3062   1.401       .  A
C3058      C3059   1.402       .  A
C3058      H3067   1.083       .  S
C3059      C3060   1.405       .  A
C3059      H3068   1.083       .  S
C3060      C3066   1.407       .  A
C3060      C3061   1.414       .  A
C3061      C3063   1.397       .  A
C3061      C3062   1.395       .  A
C3062      H3069   1.085       .  S
C3063      C3064   1.389       .  A
C3063      H3070   1.084       .  S
C3064      C3065   1.405       .  A
C3064      H3071   1.083       .  S
C3065      C3066   1.406       .  A
C3066      H3072   1.084       .  S
C3073      C3074   1.403       .  A
C3073      C3078   1.399       .  A
C3074      C3075   1.401       .  A
C3074      H3083   1.083       .  S
C3075      C3076   1.405       .  A
C3075      H3084   1.083       .  S
C3076      C3082   1.408       .  A
C3076      C3077   1.415       .  A
C3077      C3079   1.397       .  A
C3077      C3078   1.399       .  A
C3078      H3085   1.085       .  S
C3079      C3080   1.391       .  A
C3079      H3086   1.084       .  S
C3080      C3081   1.407       .  A
C3080      H3087   1.083       .  S
C3081      C3082   1.407       .  A
C3082      H3088   1.084       .  S
C3089      C3090   1.411       .  A
C3089      C3094   1.416   1_565  A
C3090      C3091   1.397       .  A
C3090      H3099   1.083       .  S
C3091      C3092   1.399       .  A
C3091      H3100   1.084       .  S
C3092      C3098   1.410       .  A
C3092      C3093   1.414   1_565  A
C3093      C3095   1.408       .  A
C3093      C3094   1.421       .  A
C3094      H3101   1.083       .  S
C3095      C3096   1.409       .  A
C3095      H3102   1.083       .  S
C3096      C3097   1.407   1_545  A
C3096      H3103   1.083       .  S
C3097      C3098   1.409       .  A
C3098      H3104   1.084       .  S
C3105      C3106   1.411       .  A
C3105      C3110   1.420       .  A
C3106      C3107   1.402   1_565  A
C3106      H3115   1.083       .  S
C3107      C3108   1.402   1_545  A
C3107      H3116   1.084       .  S
C3108      C3114   1.418   1_565  A
C3108      C3109   1.413       .  A
C3109      C3111   1.409       .  A
C3109      C3110   1.426       .  A
C3110      H3117   1.083       .  S
C3111      C3112   1.412       .  A
C3111      H3118   1.083       .  S
C3112      C3113   1.410       .  A
C3112      H3119   1.083       .  S
C3113      C3114   1.415   1_565  A
C3114      H3120   1.084       .  S
C3121      C3122   1.402       .  A
C3121      C3126   1.402       .  A
C3122      C3123   1.393       .  A
C3122      H3131   1.084       .  S
C3123      C3124   1.399       .  A
C3123      H3132   1.084       .  S
C3124      C3130   1.400       .  A
C3124      C3125   1.416       .  A
C3125      C3127   1.402       .  A
C3125      C3126   1.405       .  A
C3126      H3133   1.085       .  S
C3127      C3128   1.398       .  A
C3127      H3134   1.084       .  S
C3128      C3129   1.405       .  A
C3128      H3135   1.083       .  S
C3129      C3130   1.401       .  A
C3130      H3136   1.085       .  S
C3137      C3138   1.408       .  A
C3137      C3142   1.404       .  A
C3138      C3139   1.397       .  A
C3138      H3147   1.083       .  S
C3139      C3140   1.401       .  A
C3139      H3148   1.084       .  S
C3140      C3146   1.404       .  A
C3140      C3141   1.414       .  A
C3141      C3143   1.399       .  A
C3141      C3142   1.401       .  A
C3142      H3149   1.084       .  S
C3143      C3144   1.393       .  A
C3143      H3150   1.084       .  S
C3144      C3145   1.408       .  A
C3144      H3151   1.083       .  S
C3145      C3146   1.406       .  A
C3146      H3152   1.084       .  S
C3153      C3154   1.409       .  A
C3153      C3158   1.410       .  A
C3154      C3155   1.405       .  A
C3154      H3163   1.083       .  S
C3155      C3156   1.405       .  A
C3155      H3164   1.083       .  S
C3156      C3162   1.417       .  A
C3156      C3157   1.414       .  A
C3157      C3159   1.400       .  A
C3157      C3158   1.410       .  A
C3158      H3165   1.084       .  S
C3159      C3160   1.397       .  A
C3159      H3166   1.084       .  S
C3160      C3161   1.410       .  A
C3160      H3167   1.083       .  S
C3161      C3162   1.413       .  A
C3162      H3168   1.084       .  S
C3169      C3170   1.406       .  A
C3169      C3174   1.403       .  A
C3170      C3171   1.401       .  A
C3170      H3179   1.083       .  S
C3171      C3172   1.403       .  A
C3171      H3180   1.083       .  S
C3172      C3178   1.406       .  A
C3172      C3173   1.415       .  A
C3173      C3175   1.397       .  A
C3173      C3174   1.394       .  A
C3174      H3181   1.084       .  S
C3175      C3176   1.388       .  A
C3175      H3182   1.084       .  S
C3176      C3177   1.405       .  A
C3176      H3183   1.084       .  S
C3177      C3178   1.403       .  A
C3178      H3184   1.084       .  S
C3185      C3186   1.408       .  A
C3185      C3190   1.404       .  A
C3186      C3187   1.398       .  A
C3186      H3195   1.083       .  S
C3187      C3188   1.402       .  A
C3187      H3196   1.084       .  S
C3188      C3194   1.406       .  A
C3188      C3189   1.414       .  A
C3189      C3191   1.398       .  A
C3189      C3190   1.400       .  A
C3190      H3197   1.084       .  S
C3191      C3192   1.392       .  A
C3191      H3198   1.084       .  S
C3192      C3193   1.408       .  A
C3192      H3199   1.083       .  S
C3193      C3194   1.406       .  A
C3194      H3200   1.084       .  S
C3201      C3202   1.410       .  A
C3201      C3206   1.413       .  A
C3202      C3203   1.409       .  A
C3202      H3211   1.083       .  S
C3203      C3204   1.407       .  A
C3203      H3212   1.083       .  S
C3204      C3210   1.422       .  A
C3204      C3205   1.413       .  A
C3205      C3207   1.401       .  A
C3205      C3206   1.414       .  A
C3206      H3213   1.084       .  S
C3207      C3208   1.399       .  A
C3207      H3214   1.084       .  S
C3208      C3209   1.411       .  A
C3208      H3215   1.083       .  S
C3209      C3210   1.416       .  A
C3210      H3216   1.083       .  S
C3217      C3218   1.410       .  A
C3217      C3222   1.415       .  A
C3218      C3219   1.408       .  A
C3218      H3227   1.083       .  S
C3219      C3220   1.406   1_455  A
C3219      H3228   1.083   1_455  S
C3220      C3226   1.423       .  A
C3220      C3221   1.413       .  A
C3221      C3223   1.403       .  A
C3221      C3222   1.418   1_655  A
C3222      H3229   1.084       .  S
C3223      C3224   1.403       .  A
C3223      H3230   1.084       .  S
C3224      C3225   1.411       .  A
C3224      H3231   1.083       .  S
C3225      C3226   1.416       .  A
C3226      H3232   1.083       .  S
C3233      C3234   1.406       .  A
C3233      C3238   1.394       .  A
C3234      C3235   1.394       .  A
C3234      H3243   1.084       .  S
C3235      C3236   1.399       .  A
C3235      H3244   1.084       .  S
C3236      C3242   1.401       .  A
C3236      C3237   1.420       .  A
C3237      C3239   1.396       .  A
C3237      C3238   1.394       .  A
C3238      H3245   1.085       .  S
C3239      C3240   1.386       .  A
C3239      H3246   1.084       .  S
C3240      C3241   1.403       .  A
C3240      H3247   1.084       .  S
C3241      C3242   1.397       .  A
C3242      H3248   1.084       .  S
C3249      C3250   1.406       .  A
C3249      C3254   1.403       .  A
C3250      C3251   1.392       .  A
C3250      H3259   1.083       .  S
C3251      C3252   1.399       .  A
C3251      H3260   1.084       .  S
C3252      C3258   1.396       .  A
C3252      C3253   1.415       .  A
C3253      C3255   1.401       .  A
C3253      C3254   1.397       .  A
C3254      H3261   1.084       .  S
C3255      C3256   1.394       .  A
C3255      H3262   1.084       .  S
C3256      C3257   1.403       .  A
C3256      H3263   1.083       .  S
C3257      C3258   1.400       .  A
C3258      H3264   1.085       .  S
C3265      C3266   1.404       .  A
C3265      C3270   1.405       .  A
C3266      C3267   1.395       .  A
C3266      H3275   1.083       .  S
C3267      C3268   1.401       .  A
C3267      H3276   1.084       .  S
C3268      C3274   1.403       .  A
C3268      C3269   1.415       .  A
C3269      C3271   1.402       .  A
C3269      C3270   1.407       .  A
C3270      H3277   1.084       .  S
C3271      C3272   1.399       .  A
C3271      H3278   1.084       .  S
C3272      C3273   1.407       .  A
C3272      H3279   1.083       .  S
C3273      C3274   1.406       .  A
C3274      H3280   1.084       .  S
C3281      C3282   1.407       .  A
C3281      C3286   1.411       .  A
C3282      C3283   1.394       .  A
C3282      H3291   1.083       .  S
C3283      C3284   1.399       .  A
C3283      H3292   1.084       .  S
C3284      C3290   1.402       .  A
C3284      C3285   1.413       .  A
C3285      C3287   1.405       .  A
C3285      C3286   1.411       .  A
C3286      H3293   1.084       .  S
C3287      C3288   1.404       .  A
C3287      H3294   1.083       .  S
C3288      C3289   1.407       .  A
C3288      H3295   1.083       .  S
C3289      C3290   1.407       .  A
C3290      H3296   1.084       .  S
C3297      C3298   1.410       .  A
C3297      C3302   1.415   1_655  A
C3298      C3299   1.402       .  A
C3298      H3307   1.083       .  S
C3299      C3300   1.403       .  A
C3299      H3308   1.084       .  S
C3300      C3306   1.419       .  A
C3300      C3301   1.415   1_655  A
C3301      C3303   1.407       .  A
C3301      C3302   1.426       .  A
C3302      H3309   1.084       .  S
C3303      C3304   1.409       .  A
C3303      H3310   1.083       .  S
C3304      C3305   1.410   1_455  A
C3304      H3311   1.083       .  S
C3305      C3306   1.415       .  A
C3306      H3312   1.084       .  S
C3313      C3314   1.400       .  A
C3313      C3318   1.401       .  A
C3314      C3315   1.394       .  A
C3314      H3323   1.083       .  S
C3315      C3316   1.402       .  A
C3315      H3324   1.084       .  S
C3316      C3322   1.395       .  A
C3316      C3317   1.415       .  A
C3317      C3319   1.403       .  A
C3317      C3318   1.395       .  A
C3318      H3325   1.085       .  S
C3319      C3320   1.394       .  A
C3319      H3326   1.084       .  S
C3320      C3321   1.400       .  A
C3320      H3327   1.083       .  S
C3321      C3322   1.398       .  A
C3322      H3328   1.085       .  S
C3329      C3330   1.400       .  A
C3329      C3334   1.400       .  A
C3330      C3331   1.393       .  A
C3330      H3339   1.083       .  S
C3331      C3332   1.403       .  A
C3331      H3340   1.084       .  S
C3332      C3338   1.391       .  A
C3332      C3333   1.414       .  A
C3333      C3335   1.404       .  A
C3333      C3334   1.391       .  A
C3334      H3341   1.085       .  S
C3335      C3336   1.394       .  A
C3335      H3342   1.084       .  S
C3336      C3337   1.397       .  A
C3336      H3343   1.083       .  S
C3337      C3338   1.399       .  A
C3338      H3344   1.086       .  S
C3345      C3346   1.404       .  A
C3345      C3350   1.401       .  A
C3346      C3347   1.401       .  A
C3346      H3355   1.083       .  S
C3347      C3348   1.404       .  A
C3347      H3356   1.083       .  S
C3348      C3354   1.408       .  A
C3348      C3349   1.414       .  A
C3349      C3351   1.397       .  A
C3349      C3350   1.399       .  A
C3350      H3357   1.085       .  S
C3351      C3352   1.391       .  A
C3351      H3358   1.084       .  S
C3352      C3353   1.408       .  A
C3352      H3359   1.083       .  S
C3353      C3354   1.408       .  A
C3354      H3360   1.084       .  S
C3361      C3362   1.407       .  A
C3361      C3366   1.408       .  A
C3362      C3363   1.390       .  A
C3362      H3371   1.083       .  S
C3363      C3364   1.397       .  A
C3363      H3372   1.084       .  S
C3364      C3370   1.399       .  A
C3364      C3365   1.414       .  A
C3365      C3367   1.405       .  A
C3365      C3366   1.410       .  A
C3366      H3373   1.084       .  S
C3367      C3368   1.403       .  A
C3367      H3374   1.083       .  S
C3368      C3369   1.407       .  A
C3368      H3375   1.083       .  S
C3369      C3370   1.403       .  A
C3370      H3376   1.085       .  S
C3377      C3378   1.406       .  A
C3377      C3382   1.412   1_655  A
C3378      C3379   1.405       .  A
C3378      H3387   1.083       .  S
C3379      C3380   1.406       .  A
C3379      H3388   1.083       .  S
C3380      C3386   1.418       .  A
C3380      C3381   1.414   1_655  A
C3381      C3383   1.405       .  A
C3381      C3382   1.419       .  A
C3382      H3389   1.084       .  S
C3383      C3384   1.406       .  A
C3383      H3390   1.083       .  S
C3384      C3385   1.409       .  A
C3384      H3391   1.083       .  S
C3385      C3386   1.416   1_455  A
C3386      H3392   1.084       .  S
C3393      C3394   1.411   1_455  A
C3393      C3398   1.423       .  A
C3394      C3395   1.409       .  A
C3394      H3403   1.083       .  S
C3395      C3396   1.406   1_655  A
C3395      H3404   1.083       .  S
C3396      C3402   1.428       .  A
C3396      C3397   1.414       .  A
C3397      C3399   1.409       .  A
C3397      C3398   1.431       .  A
C3398      H3405   1.083       .  S
C3399      C3400   1.413       .  A
C3399      H3406   1.083       .  S
C3400      C3401   1.411       .  A
C3400      H3407   1.083       .  S
C3401      C3402   1.419       .  A
C3402      H3408   1.084   1_455  S
