geometry optimzed in LAMMPS
_audit_creation_date              2020-11-30 
_audit_creation_method            'lammps2cif' 
_symmetry_space_group_name_H-M    'P1' 
_symmetry_Int_Tables_number       1 
_symmetry_cell_setting            triclinic 
loop_ 
_symmetry_equiv_pos_as_xyz 
  x,y,z 
_cell_length_a                    29.381789644845913 
_cell_length_b                    29.446610654373842 
_cell_length_c                    32.049116553564595 
_cell_angle_alpha                 90.12070035045876 
_cell_angle_beta                  89.67445516295018 
_cell_angle_gamma                 120.75211061841048 
loop_ 
_atom_site_label 
_atom_site_type_symbol 
_atom_site_fract_x 
_atom_site_fract_y 
_atom_site_fract_z 
_atom_site_charge 
C1          C  0.47793724  0.94940508  0.09670046     0.03430
C2          C  0.47867712  0.95070146  0.14032404    -0.12720
C3          C  0.49713095  0.99864299  0.16233538     0.00930
C4          C  0.51527210  0.04538320  0.13855697    -0.11250
C5          C  0.51818188  0.04474840  0.09479820     0.03420
C6          C  0.49829859  0.99635179  0.07412789    -0.10670
H7          H  0.46562667  0.91376620  0.15618365     0.09020
H8          H  0.52762401  0.08288229  0.15325294     0.06550
H9          H  0.49936292  0.99512638  0.04032464     0.06390
C10         C  0.47405363  0.95368732  0.27680774     0.03430
C11         C  0.47048728  0.95290580  0.23322883    -0.12720
C12         C  0.49858348  0.99988508  0.20942929     0.00930
C13         C  0.52883822  0.04791138  0.23141881    -0.11250
C14         C  0.53031905  0.04891669  0.27511585     0.03420
C15         C  0.50365035  0.00174439  0.29765554    -0.10670
H16         H  0.44512870  0.91507687  0.21880800     0.09020
H17         H  0.55208243  0.08512719  0.21542778     0.06550
H18         H  0.50552028  0.00247706  0.33146466     0.06390
O19         O  0.74104781  0.41115869  0.48472552    -0.81500
C20         C  0.61841589  0.23604993  0.37743001     0.97860
O21         O  0.65571157  0.24344356  0.40122980    -0.70610
O22         O  0.74441247  0.33322591  0.39125817    -0.74210
Al23       Al  0.70145400  0.29865965  0.43833976     1.48980
C24         C  0.76950283  0.38178106  0.38268597     0.93110
O25         O  0.66976821  0.41139715  0.38681628    -0.80430
O26         O  0.58753677  0.32843061  0.48094228    -0.73980
Al27       Al  0.70233732  0.40503066  0.43592019     1.90120
O28         O  0.58963502  0.34656910  0.39800561    -0.73050
O29         O  0.58463627  0.23980296  0.46543670    -0.72900
O30         O  0.59625335  0.26276187  0.38228359    -0.78560
O31         O  0.66301297  0.25887186  0.48621219    -0.76770
O32         O  0.66687637  0.33411015  0.43548036    -1.12900
O33         O  0.75519321  0.34583209  0.47547748    -0.72100
C34         C  0.76507104  0.38749978  0.49405376     0.98620
C35         C  0.62099701  0.38849217  0.37913921     0.95020
Al36       Al  0.59608594  0.29780379  0.43198145     1.55560
O37         O  0.75849673  0.41329561  0.40047118    -0.76720
C38         C  0.61329973  0.23022151  0.48838781     0.99190
C39         C  0.61081898  0.37680507  0.49019155     0.94070
O40         O  0.65295104  0.41028383  0.47180907    -0.82040
C41         C  0.47835937  0.52373850  0.09315192     0.03430
C42         C  0.49732112  0.49530884  0.07164417    -0.12720
C43         C  0.51731487  0.46812855  0.09326017     0.00930
C44         C  0.51876582  0.47001271  0.13700993    -0.11250
C45         C  0.50286696  0.50093336  0.15978001     0.03420
C46         C  0.48316433  0.52824801  0.13671623    -0.10670
H47         H  0.49619532  0.49416314  0.03782306     0.09020
H48         H  0.53181405  0.44624094  0.15245444     0.06550
H49         H  0.47059068  0.55275492  0.15174362     0.06390
C50         C  0.48475292  0.52927319  0.27407076     0.03430
C51         C  0.51110251  0.50812351  0.29526103    -0.12720
C52         C  0.53659871  0.48658812  0.27306854     0.00930
C53         C  0.53487771  0.48526672  0.22934933    -0.11250
C54         C  0.50625974  0.50403251  0.20693995     0.03420
C55         C  0.48079679  0.52559097  0.23047503    -0.10670
H56         H  0.51227881  0.50900359  0.32909690     0.09020
H57         H  0.55649844  0.46957967  0.21379771     0.06550
H58         H  0.45731579  0.53959577  0.21592188     0.06390
O59         O  0.26014763  0.58602366  0.48217281    -0.81500
C60         C  0.38774760  0.76719670  0.38066249     0.97860
O61         O  0.34881998  0.75794188  0.40347228    -0.70610
O62         O  0.26261328  0.66858146  0.38708107    -0.74210
Al63       Al  0.30036955  0.69976927  0.43685884     1.48980
C64         C  0.23574107  0.61993077  0.37872203     0.93110
O65         O  0.33533433  0.59245310  0.38292396    -0.80430
O66         O  0.41125358  0.66732023  0.48254351    -0.73980
Al67       Al  0.30044623  0.59460942  0.43255206     1.90120
O68         O  0.41522343  0.65556038  0.39821671    -0.73050
O69         O  0.41420927  0.75652004  0.47020724    -0.72900
O70         O  0.41055674  0.74115306  0.38570507    -0.78560
O71         O  0.33380198  0.73573232  0.48717071    -0.76770
O72         O  0.33567103  0.66527848  0.43455641    -1.12900
O73         O  0.24349684  0.64914443  0.47010376    -0.72100
C74         C  0.23275270  0.60716916  0.48870614     0.98620
C75         C  0.38459706  0.61585268  0.37655528     0.95020
Al76       Al  0.40648208  0.70186691  0.43418204     1.55560
O77         O  0.24465039  0.58772682  0.39756178    -0.76720
C78         C  0.38307206  0.76314918  0.49310628     0.99190
C79         C  0.38897179  0.61814142  0.48807260     0.94070
O80         O  0.34879558  0.58696465  0.46686983    -0.82040
C81         C  0.04601381  0.51449092  0.09548472     0.03430
C82         C  0.04754989  0.52082631  0.13907814    -0.12720
C83         C  0.00083388  0.50593386  0.16254451     0.00930
C84         C  0.95299074  0.48718847  0.14038658    -0.11250
C85         C  0.95091485  0.47971589  0.09714098     0.03420
C86         C  0.99691654  0.49141081  0.07535884    -0.10670
H87         H  0.08555303  0.53779077  0.15393118     0.09020
H88         H  0.91701279  0.47932576  0.15598081     0.06550
H89         H  0.99465830  0.48441318  0.04198847     0.06390
C90         C  0.05023681  0.54195271  0.27520409     0.03430
C91         C  0.04954123  0.54053447  0.23152003    -0.12720
C92         C  0.00161762  0.51006965  0.20953893     0.00930
C93         C  0.95436587  0.48183842  0.23333241    -0.11250
C94         C  0.95475609  0.48561212  0.27702730     0.03420
C95         C  0.00294329  0.51528499  0.29774065    -0.10670
H96         H  0.08701288  0.56318968  0.21559244     0.09020
H97         H  0.91684889  0.45561397  0.21871671     0.06550
H98         H  0.00381874  0.51671853  0.33157438     0.06390
C99         C  0.16833833  0.63239805  0.34257041    -0.11970
C100        C  0.19078654  0.60058962  0.34899772     0.05040
C101        C  0.16740980  0.55062090  0.32896209    -0.07250
C102        C  0.12385959  0.53491603  0.30282770    -0.08000
C103        C  0.10085622  0.56595267  0.29774174    -0.02550
C104        C  0.12295481  0.61534220  0.31797273     0.04270
N105        N  0.09945591  0.64787044  0.31492995     0.66770
H106        H  0.18520597  0.67028303  0.35811079     0.15670
H107        H  0.10571453  0.49639832  0.28807420     0.15380
N108        N  0.18558730  0.51427123  0.33515980     0.74480
O109        O  0.10753942  0.68128929  0.34302018    -0.38970
O110        O  0.07269741  0.64539420  0.28341770    -0.38910
O111        O  0.17986008  0.49323026  0.37054744    -0.39620
O112        O  0.19081576  0.49131637  0.30376910    -0.39690
C113        C  0.09746020  0.56470440  0.03339820    -0.11970
C114        C  0.09533324  0.53681414  0.06956665     0.05040
C115        C  0.13969109  0.53178650  0.07938138    -0.07250
C116        C  0.18464122  0.55524788  0.05289763    -0.08000
C117        C  0.18554976  0.58202146  0.01638866    -0.02550
C118        C  0.14070828  0.58540361  0.50632634     0.04270
N119        N  0.13660831  0.60596284  0.46697974     0.66770
H120        H  0.06438508  0.56942372  0.02524466     0.15670
H121        H  0.21867137  0.55186929  0.06044738     0.15380
N122        N  0.13937320  0.50188184  0.11487937     0.74480
O123        O  0.13487393  0.58176268  0.43395272    -0.38970
O124        O  0.12470846  0.64148474  0.46569057    -0.38910
O125        O  0.09882355  0.45783593  0.12340138    -0.39620
O126        O  0.18143454  0.51658890  0.13507344    -0.39690
C127        C  0.46357699  0.62484580  0.33957651    -0.11970
C128        C  0.40829207  0.59591554  0.34546254     0.05040
C129        C  0.37854661  0.54698742  0.32461544    -0.07250
C130        C  0.40478957  0.52629823  0.30191780    -0.08000
C131        C  0.46007375  0.55422921  0.29783892    -0.02550
C132        C  0.49008831  0.60530616  0.31566356     0.04270
N133        N  0.54664212  0.63862479  0.30940345     0.66770
H134        H  0.48681198  0.66296818  0.35449512     0.15670
H135        H  0.38175572  0.48826700  0.28672791     0.15380
N136        N  0.32189769  0.51886927  0.32461955     0.74480
O137        O  0.56873013  0.68799306  0.31436349    -0.38970
O138        O  0.57528570  0.61958989  0.30007235    -0.38910
O139        O  0.29844450  0.54131460  0.31037436    -0.39620
O140        O  0.29611730  0.46947621  0.33017707    -0.39690
C141        C  0.47016399  0.60143357  0.07334685    -0.11970
C142        C  0.45203950  0.54729821  0.06962513     0.05040
C143        C  0.41063208  0.51642357  0.04154344    -0.07250
C144        C  0.39128565  0.54085776  0.01571403    -0.08000
C145        C  0.41065888  0.59542598  0.01792269    -0.02550
C146        C  0.44990067  0.62578254  0.04793856     0.04270
N147        N  0.46947332  0.68099456  0.05340443     0.66770
H148        H  0.50145182  0.62532412  0.09521082     0.15670
H149        H  0.36020606  0.51647057  0.49387850     0.15380
N150        N  0.38644594  0.45996380  0.03998142     0.74480
O151        O  0.46331501  0.69748671  0.08813773    -0.38970
O152        O  0.50200322  0.71373729  0.02734211    -0.38910
O153        O  0.37393725  0.43361610  0.07342610    -0.39620
O154        O  0.37053715  0.43586096  0.50567247    -0.39690
C155        C  0.53423399  0.38276418  0.51275670    -0.11970
C156        C  0.58612722  0.39511422  0.02063723     0.05040
C157        C  0.61403682  0.42786334  0.05480216    -0.07250
C158        C  0.58992560  0.45000077  0.07872337    -0.08000
C159        C  0.53849791  0.43917553  0.06988681    -0.02550
C160        C  0.50985126  0.40384683  0.03715723     0.04270
N161        N  0.45581646  0.38814476  0.02882960     0.66770
H162        H  0.51269691  0.35693855  0.48690327     0.15670
H163        H  0.61164696  0.47646396  0.10417486     0.15380
N164        N  0.66581418  0.43797573  0.06612270     0.74480
O165        O  0.43927466  0.38099895  0.49173550    -0.38970
O166        O  0.42291456  0.37408088  0.05849514    -0.38910
O167        O  0.67820739  0.40324394  0.06019588    -0.39620
O168        O  0.69671434  0.47862471  0.08694799    -0.39690
C169        C  0.63440444  0.46193714  0.33180507    -0.11970
C170        C  0.59984642  0.41179495  0.34915354     0.05040
C171        C  0.54530169  0.38621443  0.33894520    -0.07250
C172        C  0.52710979  0.41086480  0.31222610    -0.08000
C173        C  0.56122598  0.46136209  0.29615490    -0.02550
C174        C  0.61591756  0.48761873  0.30577588     0.04270
N175        N  0.65278280  0.54041953  0.29103994     0.66770
H176        H  0.67610236  0.48188200  0.33937475     0.15670
H177        H  0.48514956  0.39125313  0.30539962     0.15380
N178        N  0.50702109  0.33636499  0.35671026     0.74480
O179        O  0.69691836  0.56802701  0.30879892    -0.38970
O180        O  0.64295115  0.55910260  0.25925159    -0.38910
O181        O  0.49281766  0.33450893  0.39422575    -0.39620
O182        O  0.47861551  0.29803542  0.33290953    -0.39690
C183        C  0.81712247  0.43826564  0.32167199    -0.11970
C184        C  0.81381466  0.40295607  0.35253798     0.05040
C185        C  0.85609047  0.39363998  0.35734887    -0.07250
C186        C  0.90125670  0.42094627  0.33213865    -0.08000
C187        C  0.90506560  0.45687758  0.30164430    -0.02550
C188        C  0.86221608  0.46540067  0.29602041     0.04270
N189        N  0.86465991  0.50303726  0.26614326     0.66770
H190        H  0.78506958  0.44611035  0.31855348     0.15670
H191        H  0.93384983  0.41414228  0.33645335     0.15380
N192        N  0.85535277  0.35925278  0.38930389     0.74480
O193        O  0.82293108  0.49534394  0.24859156    -0.38970
O194        O  0.90702221  0.54668685  0.26070493    -0.38910
O195        O  0.82191268  0.31039284  0.38777728    -0.39620
O196        O  0.89374057  0.37576938  0.41420936    -0.39690
C197        C  0.85137858  0.46265159  0.01445294    -0.11970
C198        C  0.80920590  0.41190604  0.02387434     0.05040
C199        C  0.81171164  0.38570599  0.05991074    -0.07250
C200        C  0.85718232  0.41038900  0.08488667    -0.08000
C201        C  0.90066168  0.45986789  0.07406446    -0.02550
C202        C  0.89717686  0.48709865  0.03899023     0.04270
N203        N  0.93949301  0.53923528  0.02786811     0.66770
H204        H  0.84897338  0.48298146  0.48713441     0.15670
H205        H  0.85976678  0.38951743  0.11174984     0.15380
N206        N  0.76886113  0.33452065  0.07181470     0.74480
O207        O  0.94710943  0.55386546  0.49018421    -0.38970
O208        O  0.96614580  0.57250274  0.05580173    -0.38910
O209        O  0.75202561  0.29639250  0.04662131    -0.39620
O210        O  0.75473665  0.32515151  0.10960614    -0.39690
C211        C  0.38119585  0.84000046  0.34767067    -0.11970
C212        C  0.40712714  0.81088394  0.34953796     0.05040
C213        C  0.45233169  0.82684828  0.32405059    -0.07250
C214        C  0.47282890  0.87361141  0.30071211    -0.08000
C215        C  0.44827410  0.90382997  0.30072601    -0.02550
C216        C  0.40058050  0.88597002  0.32339426     0.04270
N217        N  0.37071453  0.91265995  0.32203894     0.66770
H218        H  0.34583200  0.82755867  0.36621727     0.15670
H219        H  0.50827790  0.88650141  0.28207791     0.15380
N220        N  0.47753758  0.79614609  0.32087010     0.74480
O221        O  0.32263858  0.88860714  0.33311758    -0.38970
O222        O  0.39164086  0.96016733  0.31051495    -0.38910
O223        O  0.45093555  0.74840992  0.30961749    -0.39620
O224        O  0.52742879  0.81889669  0.32125930    -0.39690
C225        C  0.62734980  0.16653947  0.34047951    -0.11970
C226        C  0.59925018  0.19318662  0.34567121     0.05040
C227        C  0.55110889  0.17439634  0.32391742    -0.07250
C228        C  0.53040699  0.12758216  0.30082508    -0.08000
C229        C  0.55720596  0.09970755  0.29761063    -0.02550
C230        C  0.60739312  0.12014515  0.31657283     0.04270
N231        N  0.63885048  0.09535256  0.31212225     0.66770
H232        H  0.66475076  0.18117314  0.35631473     0.15750
H233        H  0.49268010  0.11251294  0.28529947     0.15380
N234        N  0.52242668  0.20175712  0.32500023     0.74480
O235        O  0.68741402  0.12060184  0.32134599    -0.38970
O236        O  0.61895814  0.04843470  0.29937459    -0.38910
O237        O  0.54376285  0.24820182  0.31078593    -0.39620
O238        O  0.47324139  0.17652392  0.33227258    -0.39690
C239        C  0.46185228  0.83782302  0.02695693    -0.11970
C240        C  0.40621744  0.80589468  0.02508599     0.05040
C241        C  0.37523895  0.81884769  0.05087477    -0.07250
C242        C  0.40026389  0.86540923  0.07457042    -0.08000
C243        C  0.45551253  0.89858614  0.07435981    -0.02550
C244        C  0.48729839  0.88385056  0.05141643     0.04270
N245        N  0.54468041  0.91433594  0.05223469     0.66770
H246        H  0.48598698  0.82739585  0.50831893     0.15670
H247        H  0.37629980  0.87619719  0.09316742     0.15380
N248        N  0.31873591  0.78556736  0.05363726     0.74480
O249        O  0.57129676  0.90124036  0.02942500    -0.38970
O250        O  0.56934054  0.95183160  0.07765667    -0.38910
O251        O  0.29856033  0.73761976  0.06376952    -0.39620
O252        O  0.28990576  0.80588711  0.05371801    -0.39690
C253        C  0.51423237  0.09689991  0.03577336    -0.11970
C254        C  0.54232639  0.09441701  0.07004179     0.05040
C255        C  0.59362014  0.13786223  0.07833966    -0.07250
C256        C  0.61522180  0.18229922  0.05197729    -0.08000
C257        C  0.58785398  0.18379374  0.01671815    -0.02550
C258        C  0.53663750  0.14014709  0.00857828     0.04270
N259        N  0.50803673  0.13723258  0.47153428     0.66770
H260        H  0.47512869  0.06375324  0.02904368     0.15670
H261        H  0.65443483  0.21526401  0.05837368     0.15380
N262        N  0.62539857  0.13667939  0.11181147     0.74480
O263        O  0.52812921  0.13936035  0.43613857    -0.38970
O264        O  0.45960110  0.12284428  0.47401838    -0.38910
O265        O  0.62877637  0.09614323  0.11781515    -0.39620
O266        O  0.65572055  0.17841949  0.13170613    -0.39690
C267        C  0.47793724  0.94940507  0.59670046     0.03430
C268        C  0.47867711  0.95070145  0.64032404    -0.12720
C269        C  0.49713095  0.99864299  0.66233538     0.00930
C270        C  0.51527211  0.04538319  0.63855697    -0.11250
C271        C  0.51818190  0.04474840  0.59479820     0.03420
C272        C  0.49829861  0.99635178  0.57412789    -0.10670
H273        H  0.46562664  0.91376619  0.65618365     0.09020
H274        H  0.52762402  0.08288228  0.65325293     0.06550
H275        H  0.49936293  0.99512637  0.54032464     0.06390
C276        C  0.47405363  0.95368732  0.77680775     0.03430
C277        C  0.47048728  0.95290580  0.73322883    -0.12720
C278        C  0.49858347  0.99988508  0.70942929     0.00930
C279        C  0.52883821  0.04791138  0.73141881    -0.11250
C280        C  0.53031905  0.04891669  0.77511585     0.03420
C281        C  0.50365035  0.00174440  0.79765554    -0.10670
H282        H  0.44512870  0.91507687  0.71880801     0.09020
H283        H  0.55208243  0.08512719  0.71542778     0.06550
H284        H  0.50552029  0.00247706  0.83146466     0.06390
O285        O  0.74104780  0.41115869  0.98472552    -0.81500
C286        C  0.61841589  0.23604993  0.87743000     0.97860
O287        O  0.65571157  0.24344357  0.90122980    -0.70610
O288        O  0.74441248  0.33322592  0.89125817    -0.74210
Al289      Al  0.70145400  0.29865965  0.93833976     1.48980
C290        C  0.76950283  0.38178107  0.88268597     0.93110
O291        O  0.66976821  0.41139716  0.88681628    -0.80430
O292        O  0.58753677  0.32843060  0.98094227    -0.73980
Al293      Al  0.70233732  0.40503066  0.93592019     1.90120
O294        O  0.58963502  0.34656910  0.89800561    -0.73050
O295        O  0.58463627  0.23980296  0.96543669    -0.72900
O296        O  0.59625336  0.26276187  0.88228358    -0.78560
O297        O  0.66301297  0.25887187  0.98621219    -0.76770
O298        O  0.66687637  0.33411015  0.93548036    -1.12900
O299        O  0.75519321  0.34583208  0.97547748    -0.72100
C300        C  0.76507104  0.38749978  0.99405376     0.98620
C301        C  0.62099701  0.38849217  0.87913921     0.95020
Al302      Al  0.59608594  0.29780379  0.93198144     1.55560
O303        O  0.75849673  0.41329561  0.90047118    -0.76720
C304        C  0.61329972  0.23022151  0.98838781     0.99190
C305        C  0.61081898  0.37680507  0.99019154     0.94070
O306        O  0.65295104  0.41028383  0.97180907    -0.82040
C307        C  0.47835939  0.52373852  0.59315192     0.03430
C308        C  0.49732114  0.49530886  0.57164417    -0.12720
C309        C  0.51731489  0.46812857  0.59326017     0.00930
C310        C  0.51876584  0.47001273  0.63700993    -0.11250
C311        C  0.50286698  0.50093338  0.65978001     0.03420
C312        C  0.48316435  0.52824804  0.63671623    -0.10670
H313        H  0.49619533  0.49416315  0.53782306     0.09020
H314        H  0.53181407  0.44624096  0.65245444     0.06550
H315        H  0.47059070  0.55275494  0.65174362     0.06390
C316        C  0.48475293  0.52927320  0.77407076     0.03430
C317        C  0.51110251  0.50812352  0.79526103    -0.12720
C318        C  0.53659872  0.48658813  0.77306854     0.00930
C319        C  0.53487773  0.48526674  0.72934933    -0.11250
C320        C  0.50625976  0.50403253  0.70693995     0.03420
C321        C  0.48079681  0.52559099  0.73047503    -0.10670
H322        H  0.51227881  0.50900359  0.82909690     0.09020
H323        H  0.55649846  0.46957970  0.71379770     0.06550
H324        H  0.45731582  0.53959580  0.71592188     0.06390
O325        O  0.26014764  0.58602367  0.98217282    -0.81500
C326        C  0.38774761  0.76719670  0.88066249     0.97860
O327        O  0.34881998  0.75794188  0.90347228    -0.70610
O328        O  0.26261328  0.66858146  0.88708107    -0.74210
Al329      Al  0.30036955  0.69976928  0.93685884     1.48980
C330        C  0.23574107  0.61993077  0.87872204     0.93110
O331        O  0.33533433  0.59245311  0.88292396    -0.80430
O332        O  0.41125358  0.66732022  0.98254351    -0.73980
Al333      Al  0.30044623  0.59460942  0.93255206     1.90120
O334        O  0.41522343  0.65556038  0.89821671    -0.73050
O335        O  0.41420927  0.75652004  0.97020725    -0.72900
O336        O  0.41055675  0.74115306  0.88570507    -0.78560
O337        O  0.33380198  0.73573233  0.98717071    -0.76770
O338        O  0.33567103  0.66527849  0.93455641    -1.12900
O339        O  0.24349685  0.64914443  0.97010376    -0.72100
C340        C  0.23275270  0.60716916  0.98870614     0.98620
C341        C  0.38459706  0.61585268  0.87655528     0.95020
Al342      Al  0.40648208  0.70186690  0.93418205     1.55560
O343        O  0.24465039  0.58772683  0.89756178    -0.76720
C344        C  0.38307207  0.76314919  0.99310629     0.99190
C345        C  0.38897178  0.61814141  0.98807260     0.94070
O346        O  0.34879559  0.58696464  0.96686983    -0.82040
C347        C  0.04601381  0.51449093  0.59548473     0.03430
C348        C  0.04754989  0.52082633  0.63907814    -0.12720
C349        C  0.00083388  0.50593387  0.66254452     0.00930
C350        C  0.95299074  0.48718849  0.64038658    -0.11250
C351        C  0.95091485  0.47971590  0.59714098     0.03420
C352        C  0.99691654  0.49141081  0.57535884    -0.10670
H353        H  0.08555303  0.53779078  0.65393118     0.09020
H354        H  0.91701279  0.47932577  0.65598082     0.06550
H355        H  0.99465830  0.48441318  0.54198847     0.06390
C356        C  0.05023681  0.54195271  0.77520409     0.03430
C357        C  0.04954123  0.54053448  0.73152003    -0.12720
C358        C  0.00161762  0.51006966  0.70953893     0.00930
C359        C  0.95436587  0.48183843  0.73333241    -0.11250
C360        C  0.95475609  0.48561213  0.77702730     0.03420
C361        C  0.00294329  0.51528500  0.79774065    -0.10670
H362        H  0.08701289  0.56318969  0.71559245     0.09020
H363        H  0.91684889  0.45561399  0.71871672     0.06550
H364        H  0.00381874  0.51671854  0.83157439     0.06390
C365        C  0.16833832  0.63239806  0.84257042    -0.11970
C366        C  0.19078654  0.60058962  0.84899773     0.05040
C367        C  0.16740979  0.55062091  0.82896210    -0.07250
C368        C  0.12385959  0.53491604  0.80282770    -0.08000
C369        C  0.10085622  0.56595268  0.79774174    -0.02550
C370        C  0.12295480  0.61534220  0.81797274     0.04270
N371        N  0.09945590  0.64787044  0.81492996     0.66770
H372        H  0.18520596  0.67028303  0.85811081     0.15670
H373        H  0.10571453  0.49639833  0.78807420     0.15380
N374        N  0.18558731  0.51427124  0.83515981     0.74480
O375        O  0.10753942  0.68128929  0.84302019    -0.38970
O376        O  0.07269741  0.64539420  0.78341771    -0.38910
O377        O  0.17986008  0.49323027  0.87054744    -0.39620
O378        O  0.19081577  0.49131639  0.80376910    -0.39690
C379        C  0.09746020  0.56470441  0.53339820    -0.11970
C380        C  0.09533324  0.53681415  0.56956665     0.05040
C381        C  0.13969109  0.53178651  0.57938138    -0.07250
C382        C  0.18464122  0.55524788  0.55289763    -0.08000
C383        C  0.18554976  0.58202146  0.51638866    -0.02550
C384        C  0.14070829  0.58540362  0.00632634     0.04270
N385        N  0.13660832  0.60596286  0.96697975     0.66770
H386        H  0.06438507  0.56942372  0.52524466     0.15670
H387        H  0.21867138  0.55186930  0.56044738     0.15380
N388        N  0.13937321  0.50188185  0.61487938     0.74480
O389        O  0.13487385  0.58176266  0.93395272    -0.38970
O390        O  0.12470860  0.64148485  0.96569059    -0.38910
O391        O  0.09882355  0.45783595  0.62340139    -0.39620
O392        O  0.18143455  0.51658892  0.63507345    -0.39690
C393        C  0.46357699  0.62484580  0.83957651    -0.11970
C394        C  0.40829207  0.59591554  0.84546254     0.05040
C395        C  0.37854661  0.54698743  0.82461543    -0.07250
C396        C  0.40478957  0.52629824  0.80191780    -0.08000
C397        C  0.46007375  0.55422921  0.79783892    -0.02550
C398        C  0.49008832  0.60530616  0.81566357     0.04270
N399        N  0.54664212  0.63862479  0.80940346     0.66770
H400        H  0.48681199  0.66296819  0.85449512     0.15670
H401        H  0.38175573  0.48826701  0.78672791     0.15380
N402        N  0.32189770  0.51886928  0.82461954     0.74480
O403        O  0.56873012  0.68799307  0.81436342    -0.38970
O404        O  0.57528572  0.61958988  0.80007247    -0.38910
O405        O  0.29844451  0.54131462  0.81037436    -0.39620
O406        O  0.29611730  0.46947622  0.83017705    -0.39690
C407        C  0.47016401  0.60143359  0.57334684    -0.11970
C408        C  0.45203951  0.54729822  0.56962513     0.05040
C409        C  0.41063208  0.51642358  0.54154344    -0.07250
C410        C  0.39128565  0.54085777  0.51571403    -0.08000
C411        C  0.41065889  0.59542599  0.51792269    -0.02550
C412        C  0.44990068  0.62578256  0.54793855     0.04270
N413        N  0.46947334  0.68099458  0.55340442     0.66770
H414        H  0.50145185  0.62532414  0.59521080     0.15670
H415        H  0.36020607  0.51647057  0.99387848     0.15380
N416        N  0.38644594  0.45996382  0.53998143     0.74480
O417        O  0.46331504  0.69748674  0.58813771    -0.38970
O418        O  0.50200324  0.71373730  0.52734208    -0.38910
O419        O  0.37393727  0.43361612  0.57342612    -0.39620
O420        O  0.37053716  0.43586096  0.00567245    -0.39690
C421        C  0.53423398  0.38276417  0.01275670    -0.11970
C422        C  0.58612723  0.39511422  0.52063723     0.05040
C423        C  0.61403683  0.42786335  0.55480216    -0.07250
C424        C  0.58992562  0.45000079  0.57872337    -0.08000
C425        C  0.53849792  0.43917555  0.56988681    -0.02550
C426        C  0.50985127  0.40384684  0.53715723     0.04270
N427        N  0.45581647  0.38814478  0.52882960     0.66770
H428        H  0.51269691  0.35693854  0.98690326     0.15670
H429        H  0.61164697  0.47646398  0.60417486     0.15380
N430        N  0.66581419  0.43797575  0.56612270     0.74480
O431        O  0.43927465  0.38099894  0.99173549    -0.38970
O432        O  0.42291457  0.37408090  0.55849514    -0.38910
O433        O  0.67820740  0.40324395  0.56019589    -0.39620
O434        O  0.69671436  0.47862472  0.58694799    -0.39690
C435        C  0.63440444  0.46193715  0.83180507    -0.11970
C436        C  0.59984643  0.41179496  0.84915354     0.05040
C437        C  0.54530170  0.38621444  0.83894519    -0.07250
C438        C  0.52710980  0.41086481  0.81222609    -0.08000
C439        C  0.56122599  0.46136210  0.79615490    -0.02550
C440        C  0.61591757  0.48761874  0.80577588     0.04270
N441        N  0.65278281  0.54041955  0.79103995     0.66770
H442        H  0.67610236  0.48188201  0.83937475     0.15670
H443        H  0.48514958  0.39125314  0.80539961     0.15380
N444        N  0.50702110  0.33636500  0.85671025     0.74480
O445        O  0.69691837  0.56802702  0.80879892    -0.38970
O446        O  0.64295116  0.55910262  0.75925160    -0.38910
O447        O  0.49281766  0.33450892  0.89422573    -0.39620
O448        O  0.47861553  0.29803542  0.83290951    -0.39690
C449        C  0.81712248  0.43826566  0.82167200    -0.11970
C450        C  0.81381466  0.40295607  0.85253798     0.05040
C451        C  0.85609047  0.39363997  0.85734886    -0.07250
C452        C  0.90125669  0.42094626  0.83213864    -0.08000
C453        C  0.90506560  0.45687759  0.80164430    -0.02550
C454        C  0.86221609  0.46540069  0.79602043     0.04270
N455        N  0.86465992  0.50303730  0.76614328     0.66770
H456        H  0.78506959  0.44611038  0.81855350     0.15670
H457        H  0.93384982  0.41414226  0.83645333     0.15380
N458        N  0.85535275  0.35925275  0.88930387     0.74480
O459        O  0.82293110  0.49534399  0.74859159    -0.38970
O460        O  0.90702223  0.54668688  0.76070496    -0.38910
O461        O  0.82191266  0.31039281  0.88777724    -0.39620
O462        O  0.89374055  0.37576934  0.91420933    -0.39690
C463        C  0.85137858  0.46265159  0.51445294    -0.11970
C464        C  0.80920590  0.41190604  0.52387434     0.05040
C465        C  0.81171165  0.38570600  0.55991074    -0.07250
C466        C  0.85718233  0.41038901  0.58488667    -0.08000
C467        C  0.90066168  0.45986789  0.57406446    -0.02550
C468        C  0.89717686  0.48709866  0.53899023     0.04270
N469        N  0.93949301  0.53923528  0.52786812     0.66770
H470        H  0.84897337  0.48298146  0.98713441     0.15670
H471        H  0.85976678  0.38951744  0.61174984     0.15380
N472        N  0.76886113  0.33452065  0.57181470     0.74480
O473        O  0.94710943  0.55386545  0.99018421    -0.38970
O474        O  0.96614580  0.57250275  0.55580173    -0.38910
O475        O  0.75202562  0.29639250  0.54662131    -0.39620
O476        O  0.75473665  0.32515151  0.60960614    -0.39690
C477        C  0.38119585  0.84000044  0.84767065    -0.11970
C478        C  0.40712715  0.81088394  0.84953796     0.05040
C479        C  0.45233171  0.82684829  0.82405061    -0.07250
C480        C  0.47282893  0.87361143  0.80071213    -0.08000
C481        C  0.44827411  0.90382997  0.80072602    -0.02550
C482        C  0.40058050  0.88597001  0.82339425     0.04270
N483        N  0.37071451  0.91265992  0.82203892     0.66770
H484        H  0.34583198  0.82755864  0.86621724     0.15670
H485        H  0.50827794  0.88650144  0.78207794     0.15380
N486        N  0.47753763  0.79614612  0.82087014     0.74480
O487        O  0.32263854  0.88860708  0.83311748    -0.38970
O488        O  0.39164087  0.96016734  0.81051500    -0.38910
O489        O  0.45093561  0.74840996  0.80961751    -0.39620
O490        O  0.52742884  0.81889674  0.82125936    -0.39690
C491        C  0.62734980  0.16653946  0.84047953    -0.11970
C492        C  0.59925019  0.19318663  0.84567121     0.05040
C493        C  0.55110891  0.17439636  0.82391740    -0.07250
C494        C  0.53040701  0.12758218  0.80082506    -0.08000
C495        C  0.55720597  0.09970756  0.79761063    -0.02550
C496        C  0.60739311  0.12014514  0.81657284     0.04270
N497        N  0.63885047  0.09535254  0.81212228     0.66770
H498        H  0.66475075  0.18117312  0.85631476     0.15750
H499        H  0.49268013  0.11251297  0.78529943     0.15380
N500        N  0.52242672  0.20175715  0.82500019     0.74480
O501        O  0.68741400  0.12060180  0.82134606    -0.38970
O502        O  0.61895814  0.04843470  0.79937458    -0.38910
O503        O  0.54376292  0.24820187  0.81078589    -0.39620
O504        O  0.47324142  0.17652397  0.83227251    -0.39690
C505        C  0.46185228  0.83782302  0.52695693    -0.11970
C506        C  0.40621744  0.80589467  0.52508599     0.05040
C507        C  0.37523894  0.81884768  0.55087477    -0.07250
C508        C  0.40026388  0.86540922  0.57457043    -0.08000
C509        C  0.45551252  0.89858613  0.57435981    -0.02550
C510        C  0.48729838  0.88385055  0.55141642     0.04270
N511        N  0.54468040  0.91433594  0.55223469     0.66770
H512        H  0.48598698  0.82739585  0.00831894     0.15670
H513        H  0.37629979  0.87619718  0.59316743     0.15380
N514        N  0.31873590  0.78556735  0.55363726     0.74480
O515        O  0.57129675  0.90124045  0.52942492    -0.38970
O516        O  0.56934052  0.95183151  0.57765675    -0.38910
O517        O  0.29856033  0.73761975  0.56376952    -0.39620
O518        O  0.28990575  0.80588710  0.55371800    -0.39690
C519        C  0.51423238  0.09689991  0.53577337    -0.11970
C520        C  0.54232640  0.09441700  0.57004179     0.05040
C521        C  0.59362016  0.13786222  0.57833965    -0.07250
C522        C  0.61522181  0.18229921  0.55197729    -0.08000
C523        C  0.58785399  0.18379374  0.51671815    -0.02550
C524        C  0.53663750  0.14014709  0.50857829     0.04270
N525        N  0.50803673  0.13723257  0.97153426     0.66770
H526        H  0.47512870  0.06375324  0.52904368     0.15670
H527        H  0.65443485  0.21526401  0.55837368     0.15380
N528        N  0.62539859  0.13667938  0.61181146     0.74480
O529        O  0.52812923  0.13936035  0.93613856    -0.38970
O530        O  0.45960110  0.12284426  0.97401835    -0.38910
O531        O  0.62877637  0.09614321  0.61781515    -0.39620
O532        O  0.65572058  0.17841948  0.63170612    -0.39690
loop_ 
_geom_bond_atom_site_label_1 
_geom_bond_atom_site_label_2 
_geom_bond_distance 
_geom_bond_site_symmetry_2 
_ccdc_geom_bond_type 
C1            C2   1.399       .  A
C1            C6   1.395       .  A
C1          C243   1.476       .  S
C2            C3   1.415       .  A
C2            H7   1.078       .  S
C3            C4   1.417   1_565  A
C3           C12   1.510       .  S
C4            C5   1.405       .  A
C4            H8   1.078       .  S
C5            C6   1.400   1_545  A
C5          C254   1.486       .  S
C6            H9   1.085       .  S
C10          C11   1.400       .  A
C10          C15   1.396   1_565  A
C10         C215   1.476       .  S
C11          C12   1.416       .  A
C11          H16   1.078       .  S
C12          C13   1.416   1_565  A
C13          C14   1.401       .  A
C13          H17   1.078       .  S
C14          C15   1.396       .  A
C14         C229   1.475       .  S
C15          H18   1.085       .  S
O19          C34   1.257       .  A
O19         Al27   1.893       .  S
C20         C226   1.490       .  S
C20          O30   1.261       .  A
C20          O21   1.263       .  A
O21         Al23   1.908       .  S
O22          C24   1.259       .  A
O22         Al23   1.891       .  S
Al23         O31   1.907       .  S
Al23         O33   1.900       .  S
Al23         O32   1.793       .  S
C24         C184   1.475       .  S
C24          O37   1.262       .  A
O25          C35   1.258       .  A
O25         Al27   1.905       .  S
O26          C39   1.261       .  A
O26         Al36   1.887       .  S
Al27         O40   1.914       .  S
Al27         O37   1.908       .  S
Al27         O32   1.795       .  S
O28          C35   1.254       .  A
O28         Al36   1.890       .  S
O29          C38   1.257       .  A
O29         Al36   1.896       .  S
O30         Al36   1.897       .  S
O31          C38   1.261       .  A
O32         Al36   1.792       .  S
O33          C34   1.257       .  A
C34         C464   1.473       .  S
C35         C170   1.492       .  S
C38         C523   1.485       .  S
C39         C422   1.469       .  S
C39          O40   1.264       .  A
C41          C42   1.399       .  A
C41          C46   1.403       .  A
C41         C142   1.485       .  S
C42          C43   1.398       .  A
C42          H47   1.085       .  S
C43          C44   1.403       .  A
C43         C159   1.487       .  S
C44          C45   1.417       .  A
C44          H48   1.077       .  S
C45          C46   1.418       .  A
C45          C54   1.515       .  S
C46          H49   1.076       .  S
C50          C51   1.396       .  A
C50          C55   1.402       .  A
C50         C131   1.477       .  S
C51          C52   1.395       .  A
C51          H56   1.085       .  S
C52          C53   1.402       .  A
C52         C173   1.477       .  S
C53          C54   1.418       .  A
C53          H57   1.077       .  S
C54          C55   1.417       .  A
C55          H58   1.077       .  S
O59          C74   1.261       .  A
O59         Al67   1.915       .  S
C60         C212   1.491       .  S
C60          O70   1.261       .  A
C60          O61   1.261       .  A
O61         Al63   1.898       .  S
O62          C64   1.262       .  A
O62         Al63   1.895       .  S
Al63         O71   1.906       .  S
Al63         O73   1.894       .  S
Al63         O72   1.786       .  S
C64         C100   1.490       .  S
C64          O77   1.261       .  A
O65          C75   1.260       .  A
O65         Al67   1.906       .  S
O66          C79   1.260       .  A
O66         Al76   1.900       .  S
Al67         O80   1.904       .  S
Al67         O77   1.915       .  S
Al67         O72   1.790       .  S
O68          C75   1.260       .  A
O68         Al76   1.898       .  S
O69          C78   1.260       .  A
O69         Al76   1.896       .  S
O70         Al76   1.905       .  S
O71          C78   1.261       .  A
O72         Al76   1.788       .  S
O73          C74   1.259       .  A
C74         C383   1.482       .  S
C75         C128   1.493       .  S
C78         C506   1.491       .  S
C79         C411   1.488       .  S
C79          O80   1.263       .  A
C81          C82   1.407       .  A
C81          C86   1.402   1_455  A
C81         C114   1.495       .  S
C82          C83   1.420       .  A
C82          H87   1.076       .  S
C83          C84   1.415   1_455  A
C83          C92   1.510       .  S
C84          C85   1.400       .  A
C84          H88   1.079       .  S
C85          C86   1.395       .  A
C85         C201   1.482       .  S
C86          H89   1.085       .  S
C90          C91   1.401       .  A
C90          C95   1.394       .  A
C90         C103   1.473       .  S
C91          C92   1.414       .  A
C91          H96   1.078       .  S
C92          C93   1.418   1_455  A
C93          C94   1.404       .  A
C93          H97   1.079       .  S
C94          C95   1.397   1_655  A
C94         C187   1.482       .  S
C95          H98   1.085       .  S
C99         C100   1.410       .  A
C99         C104   1.406       .  A
C99         H106   1.083       .  S
C100        C101   1.420       .  A
C101        C102   1.399       .  A
C101        N108   1.434       .  S
C102        C103   1.397       .  A
C102        H107   1.085       .  S
C103        C104   1.411       .  A
C104        N105   1.443       .  S
N105        O109   1.263       .  A
N105        O110   1.262       .  A
N108        O111   1.262       .  A
N108        O112   1.263       .  A
C113        C114   1.405       .  A
C113        C384   1.392       .  A
C113        H120   1.083       .  S
C114        C115   1.422       .  A
C115        C116   1.414       .  A
C115        N122   1.437       .  S
C116        C117   1.405       .  A
C116        H121   1.083       .  S
C117        C384   1.410       .  A
C117        C340   1.482   1_554  S
C118        C379   1.392       .  A
C118        C383   1.410       .  A
C118        N119   1.432       .  S
N119        O123   1.261       .  A
N119        O124   1.262       .  A
N122        O125   1.262       .  A
N122        O126   1.263       .  A
C127        C128   1.408       .  A
C127        C132   1.405       .  A
C127        H134   1.083       .  S
C128        C129   1.415       .  A
C129        C130   1.403       .  A
C129        N136   1.431       .  S
C130        C131   1.401       .  A
C130        H135   1.084       .  S
C131        C132   1.418       .  A
C132        N133   1.447       .  S
N133        O137   1.263       .  A
N133        O138   1.261       .  A
N136        O139   1.261       .  A
N136        O140   1.262       .  A
C141        C142   1.404       .  A
C141        C146   1.406       .  A
C141        H148   1.084       .  S
C142        C143   1.412       .  A
C143        C144   1.397       .  A
C143        N150   1.436       .  S
C144        C145   1.406       .  A
C144        H415   1.083   1_554  S
C145        C146   1.417       .  A
C145        C345   1.488   1_554  S
C146        N147   1.431       .  S
N147        O151   1.262       .  A
N147        O152   1.262       .  A
H149        C410   1.083       .  S
N150        O153   1.262       .  A
N150        O420   1.263       .  A
O154        N416   1.263       .  A
C155        C422   1.399       .  A
C155        C426   1.399       .  A
C155        H162   1.085       .  S
C156        C157   1.414       .  A
C156        C421   1.399       .  A
C156        C305   1.469   1_554  S
C157        C158   1.407       .  A
C157        N164   1.441       .  S
C158        C159   1.406       .  A
C158        H163   1.084       .  S
C159        C160   1.415       .  A
C160        C421   1.399       .  A
C160        N161   1.435       .  S
N161        O166   1.262       .  A
N161        O431   1.263   1_554  A
N164        O167   1.262       .  A
N164        O168   1.263       .  A
O165        N427   1.263       .  A
C169        C170   1.409       .  A
C169        C174   1.411       .  A
C169        H176   1.082       .  S
C170        C171   1.419       .  A
C171        C172   1.397       .  A
C171        N178   1.432       .  S
C172        C173   1.398       .  A
C172        H177   1.084       .  S
C173        C174   1.417       .  A
C174        N175   1.445       .  S
N175        O179   1.263       .  A
N175        O180   1.262       .  A
N178        O181   1.263       .  A
N178        O182   1.262       .  A
C183        C184   1.403       .  A
C183        C188   1.406       .  A
C183        H190   1.083       .  S
C184        C185   1.412       .  A
C185        C186   1.400       .  A
C185        N192   1.434       .  S
C186        C187   1.403       .  A
C186        H191   1.084       .  S
C187        C188   1.416       .  A
C188        N189   1.440       .  S
N189        O193   1.263       .  A
N189        O194   1.263       .  A
N192        O195   1.262       .  A
N192        O196   1.262       .  A
C197        C198   1.401       .  A
C197        C202   1.402       .  A
C197        H470   1.084   1_554  S
C198        C199   1.413       .  A
C198        C300   1.473   1_554  S
C199        C200   1.404       .  A
C199        N206   1.435       .  S
C200        C201   1.403       .  A
C200        H205   1.084       .  S
C201        C202   1.416       .  A
C202        N203   1.441       .  S
N203        O208   1.263       .  A
N203        O473   1.263   1_554  A
H204        C463   1.084       .  S
N206        O209   1.261       .  A
N206        O210   1.263       .  A
O207        N469   1.263       .  A
C211        C212   1.410       .  A
C211        C216   1.405       .  A
C211        H218   1.082       .  S
C212        C213   1.415       .  A
C213        C214   1.403       .  A
C213        N220   1.435       .  S
C214        C215   1.403       .  A
C214        H219   1.084       .  S
C215        C216   1.416       .  A
C216        N217   1.448       .  S
N217        O221   1.263       .  A
N217        O222   1.262       .  A
N220        O223   1.263       .  A
N220        O224   1.262       .  A
C225        C226   1.409       .  A
C225        C230   1.407       .  A
C225        H232   1.083       .  S
C226        C227   1.415       .  A
C227        C228   1.400       .  A
C227        N234   1.433       .  S
C228        C229   1.401       .  A
C228        H233   1.084       .  S
C229        C230   1.417       .  A
C230        N231   1.448       .  S
N231        O235   1.263       .  A
N231        O236   1.262       .  A
N234        O237   1.262       .  A
N234        O238   1.262       .  A
C239        C240   1.410       .  A
C239        C244   1.406       .  A
C239        H512   1.082       .  S
C240        C241   1.415       .  A
C240        C344   1.491   1_554  S
C241        C242   1.403       .  A
C241        N248   1.435       .  S
C242        C243   1.403       .  A
C242        H247   1.084       .  S
C243        C244   1.416       .  A
C244        N245   1.450       .  S
N245        O249   1.263       .  A
N245        O250   1.262       .  A
H246        C505   1.082       .  S
N248        O251   1.263       .  A
N248        O252   1.262       .  A
C253        C254   1.402       .  A
C253        C258   1.398       .  A
C253        H260   1.084       .  S
C254        C255   1.418       .  A
C255        C256   1.406       .  A
C255        N262   1.438       .  S
C256        C257   1.404       .  A
C256        H261   1.082       .  S
C257        C258   1.418       .  A
C257        C304   1.485   1_554  S
C258        N525   1.435   1_554  S
N259        C524   1.435       .  S
N259        O263   1.263       .  A
N259        O264   1.262       .  A
N262        O265   1.263       .  A
N262        O266   1.263       .  A
C267        C268   1.399       .  A
C267        C272   1.395       .  A
C267        C509   1.476       .  S
C268        C269   1.415       .  A
C268        H273   1.078       .  S
C269        C270   1.417   1_565  A
C269        C278   1.510       .  S
C270        C271   1.405       .  A
C270        H274   1.078       .  S
C271        C272   1.400   1_545  A
C271        C520   1.486       .  S
C272        H275   1.085       .  S
C276        C277   1.400       .  A
C276        C281   1.396   1_565  A
C276        C481   1.476       .  S
C277        C278   1.416       .  A
C277        H282   1.078       .  S
C278        C279   1.416   1_565  A
C279        C280   1.401       .  A
C279        H283   1.078       .  S
C280        C281   1.396       .  A
C280        C495   1.475       .  S
C281        H284   1.085       .  S
O285        C300   1.257       .  A
O285       Al293   1.893       .  S
C286        C492   1.490       .  S
C286        O296   1.261       .  A
C286        O287   1.263       .  A
O287       Al289   1.908       .  S
O288        C290   1.259       .  A
O288       Al289   1.891       .  S
Al289       O297   1.907       .  S
Al289       O299   1.900       .  S
Al289       O298   1.793       .  S
C290        C450   1.475       .  S
C290        O303   1.262       .  A
O291        C301   1.258       .  A
O291       Al293   1.905       .  S
O292        C305   1.261       .  A
O292       Al302   1.887       .  S
Al293       O306   1.914       .  S
Al293       O303   1.908       .  S
Al293       O298   1.795       .  S
O294        C301   1.254       .  A
O294       Al302   1.890       .  S
O295        C304   1.257       .  A
O295       Al302   1.896       .  S
O296       Al302   1.897       .  S
O297        C304   1.261       .  A
O298       Al302   1.792       .  S
O299        C300   1.257       .  A
C301        C436   1.492       .  S
C305        O306   1.264       .  A
C307        C308   1.399       .  A
C307        C312   1.403       .  A
C307        C408   1.485       .  S
C308        C309   1.398       .  A
C308        H313   1.085       .  S
C309        C310   1.403       .  A
C309        C425   1.487       .  S
C310        C311   1.417       .  A
C310        H314   1.077       .  S
C311        C312   1.418       .  A
C311        C320   1.515       .  S
C312        H315   1.076       .  S
C316        C317   1.396       .  A
C316        C321   1.402       .  A
C316        C397   1.477       .  S
C317        C318   1.395       .  A
C317        H322   1.085       .  S
C318        C319   1.402       .  A
C318        C439   1.477       .  S
C319        C320   1.418       .  A
C319        H323   1.077       .  S
C320        C321   1.417       .  A
C321        H324   1.077       .  S
O325        C340   1.261       .  A
O325       Al333   1.915       .  S
C326        C478   1.491       .  S
C326        O336   1.261       .  A
C326        O327   1.261       .  A
O327       Al329   1.898       .  S
O328        C330   1.262       .  A
O328       Al329   1.895       .  S
Al329       O337   1.906       .  S
Al329       O339   1.894       .  S
Al329       O338   1.786       .  S
C330        C366   1.490       .  S
C330        O343   1.261       .  A
O331        C341   1.260       .  A
O331       Al333   1.906       .  S
O332        C345   1.260       .  A
O332       Al342   1.900       .  S
Al333       O346   1.904       .  S
Al333       O343   1.915       .  S
Al333       O338   1.790       .  S
O334        C341   1.260       .  A
O334       Al342   1.898       .  S
O335        C344   1.260       .  A
O335       Al342   1.896       .  S
O336       Al342   1.905       .  S
O337        C344   1.261       .  A
O338       Al342   1.788       .  S
O339        C340   1.259       .  A
C341        C394   1.493       .  S
C345        O346   1.263       .  A
C347        C348   1.407       .  A
C347        C352   1.402   1_455  A
C347        C380   1.495       .  S
C348        C349   1.420       .  A
C348        H353   1.076       .  S
C349        C350   1.415   1_455  A
C349        C358   1.510       .  S
C350        C351   1.400       .  A
C350        H354   1.079       .  S
C351        C352   1.395       .  A
C351        C467   1.482       .  S
C352        H355   1.085       .  S
C356        C357   1.401       .  A
C356        C361   1.394       .  A
C356        C369   1.473       .  S
C357        C358   1.414       .  A
C357        H362   1.078       .  S
C358        C359   1.418   1_455  A
C359        C360   1.404       .  A
C359        H363   1.079       .  S
C360        C361   1.397   1_655  A
C360        C453   1.482       .  S
C361        H364   1.085       .  S
C365        C366   1.410       .  A
C365        C370   1.406       .  A
C365        H372   1.083       .  S
C366        C367   1.420       .  A
C367        C368   1.399       .  A
C367        N374   1.434       .  S
C368        C369   1.397       .  A
C368        H373   1.085       .  S
C369        C370   1.411       .  A
C370        N371   1.443       .  S
N371        O375   1.263       .  A
N371        O376   1.262       .  A
N374        O377   1.262       .  A
N374        O378   1.263       .  A
C379        C380   1.405       .  A
C379        H386   1.083       .  S
C380        C381   1.422       .  A
C381        C382   1.414       .  A
C381        N388   1.437       .  S
C382        C383   1.405       .  A
C382        H387   1.083       .  S
C384        N385   1.432   1_554  S
N385        O389   1.261       .  A
N385        O390   1.262       .  A
N388        O391   1.262       .  A
N388        O392   1.263       .  A
C393        C394   1.408       .  A
C393        C398   1.405       .  A
C393        H400   1.083       .  S
C394        C395   1.415       .  A
C395        C396   1.403       .  A
C395        N402   1.431       .  S
C396        C397   1.401       .  A
C396        H401   1.084       .  S
C397        C398   1.418       .  A
C398        N399   1.447       .  S
N399        O403   1.263       .  A
N399        O404   1.261       .  A
N402        O405   1.261       .  A
N402        O406   1.262       .  A
C407        C408   1.404       .  A
C407        C412   1.406       .  A
C407        H414   1.084       .  S
C408        C409   1.412       .  A
C409        C410   1.397       .  A
C409        N416   1.436       .  S
C410        C411   1.406       .  A
C411        C412   1.417       .  A
C412        N413   1.431       .  S
N413        O417   1.262       .  A
N413        O418   1.262       .  A
N416        O419   1.262       .  A
C421        H428   1.085   1_554  S
C422        C423   1.414       .  A
C423        C424   1.407       .  A
C423        N430   1.441       .  S
C424        C425   1.406       .  A
C424        H429   1.084       .  S
C425        C426   1.415       .  A
C426        N427   1.435       .  S
N427        O432   1.262       .  A
N430        O433   1.262       .  A
N430        O434   1.263       .  A
C435        C436   1.409       .  A
C435        C440   1.411       .  A
C435        H442   1.082       .  S
C436        C437   1.419       .  A
C437        C438   1.397       .  A
C437        N444   1.432       .  S
C438        C439   1.398       .  A
C438        H443   1.084       .  S
C439        C440   1.417       .  A
C440        N441   1.445       .  S
N441        O445   1.263       .  A
N441        O446   1.262       .  A
N444        O447   1.263       .  A
N444        O448   1.262       .  A
C449        C450   1.403       .  A
C449        C454   1.406       .  A
C449        H456   1.083       .  S
C450        C451   1.412       .  A
C451        C452   1.400       .  A
C451        N458   1.434       .  S
C452        C453   1.403       .  A
C452        H457   1.084       .  S
C453        C454   1.416       .  A
C454        N455   1.440       .  S
N455        O459   1.263       .  A
N455        O460   1.263       .  A
N458        O461   1.262       .  A
N458        O462   1.262       .  A
C463        C464   1.401       .  A
C463        C468   1.402       .  A
C464        C465   1.413       .  A
C465        C466   1.404       .  A
C465        N472   1.435       .  S
C466        C467   1.403       .  A
C466        H471   1.084       .  S
C467        C468   1.416       .  A
C468        N469   1.441       .  S
N469        O474   1.263       .  A
N472        O475   1.261       .  A
N472        O476   1.263       .  A
C477        C478   1.410       .  A
C477        C482   1.405       .  A
C477        H484   1.082       .  S
C478        C479   1.415       .  A
C479        C480   1.403       .  A
C479        N486   1.435       .  S
C480        C481   1.403       .  A
C480        H485   1.084       .  S
C481        C482   1.416       .  A
C482        N483   1.448       .  S
N483        O487   1.263       .  A
N483        O488   1.262       .  A
N486        O489   1.263       .  A
N486        O490   1.262       .  A
C491        C492   1.409       .  A
C491        C496   1.407       .  A
C491        H498   1.083       .  S
C492        C493   1.415       .  A
C493        C494   1.400       .  A
C493        N500   1.433       .  S
C494        C495   1.401       .  A
C494        H499   1.084       .  S
C495        C496   1.417       .  A
C496        N497   1.448       .  S
N497        O501   1.263       .  A
N497        O502   1.262       .  A
N500        O503   1.262       .  A
N500        O504   1.262       .  A
C505        C506   1.410       .  A
C505        C510   1.406       .  A
C506        C507   1.415       .  A
C507        C508   1.403       .  A
C507        N514   1.435       .  S
C508        C509   1.403       .  A
C508        H513   1.084       .  S
C509        C510   1.416       .  A
C510        N511   1.450       .  S
N511        O515   1.263       .  A
N511        O516   1.262       .  A
N514        O517   1.263       .  A
N514        O518   1.262       .  A
C519        C520   1.402       .  A
C519        C524   1.398       .  A
C519        H526   1.084       .  S
C520        C521   1.418       .  A
C521        C522   1.406       .  A
C521        N528   1.438       .  S
C522        C523   1.404       .  A
C522        H527   1.082       .  S
C523        C524   1.418       .  A
N525        O529   1.263       .  A
N525        O530   1.262       .  A
N528        O531   1.263       .  A
N528        O532   1.263       .  A
