geometry optimzed in LAMMPS
_audit_creation_date              2020-12-01 
_audit_creation_method            'lammps2cif' 
_symmetry_space_group_name_H-M    'P1' 
_symmetry_Int_Tables_number       1 
_symmetry_cell_setting            triclinic 
loop_ 
_symmetry_equiv_pos_as_xyz 
  x,y,z 
_cell_length_a                    28.40527451 
_cell_length_b                    28.302748547148017 
_cell_length_c                    46.983728237628334 
_cell_angle_alpha                 88.62553050545003 
_cell_angle_beta                  90.49766534583102 
_cell_angle_gamma                 90.3773954637509 
loop_ 
_atom_site_label 
_atom_site_type_symbol 
_atom_site_fract_x 
_atom_site_fract_y 
_atom_site_fract_z 
_atom_site_charge 
N1          N  0.26585718  0.29365656  0.39538462    -0.02300
C2          C  0.30627330  0.28224179  0.40965772     0.00300
C3          C  0.31801243  0.31680539  0.42873476    -0.22600
C4          C  0.28334623  0.35004214  0.42686586    -0.22800
C5          C  0.25140422  0.33473325  0.40687542     0.00200
H6          H  0.34785845  0.31687390  0.44313974     0.14000
H7          H  0.28020092  0.38106249  0.43968560     0.14000
Zn8        Zn  0.48789077  0.07820963  0.47242376     1.49700
Zn9        Zn  0.03347309  0.53106490  0.42464260     1.49400
Zn10       Zn  0.54877679  0.45743227  0.47709312     1.49100
Zn11       Zn  0.47046638  0.50793112  0.43839660     1.49500
O12         O  0.53224581  0.51435053  0.45610841    -1.82900
O13         O  0.08889023  0.10553753  0.47404285    -0.73600
O14         O  0.07668693  0.47719180  0.41812988    -0.73400
O15         O  0.55441571  0.47695815  0.01294598    -0.72900
O16         O  0.11779158  0.08701882  0.43179927    -0.73600
O17         O  0.45281404  0.04751254  0.01120747    -0.73200
O18         O  0.06790912  0.43119602  0.45663802    -0.73800
O19         O  0.43156989  0.45679979  0.46020359    -0.73100
O20         O  0.00027629  0.54258762  0.38787844    -0.73900
O21         O  0.49076408  0.41811255  0.48108980    -0.73300
O22         O  0.48073732  0.49515387  0.39664483    -0.73800
O23         O  0.39853431  0.07151366  0.42462806    -0.73700
O24         O  0.44052904  0.11974413  0.45206537    -0.73500
C25         C  0.12005896  0.11005076  0.45496293     0.78300
C26         C  0.08798818  0.44068752  0.43283466     0.78800
C27         C  0.52901555  0.50634636  0.02628769     0.77800
C28         C  0.44690488  0.42282828  0.47616147     0.78200
C29         C  0.51117285  0.51481324  0.38019807     0.79300
C30         C  0.40845982  0.11278480  0.43334576     0.78300
N31         N  0.29047823  0.24991743  0.50993757    -0.02300
C32         C  0.28566241  0.21136626  0.49297992     0.00300
C33         C  0.32781699  0.20115174  0.48034581    -0.22600
C34         C  0.35887756  0.23542182  0.48743191    -0.22800
C35         C  0.33538109  0.26550008  0.50496271     0.00200
H36         H  0.33489991  0.17263389  0.46637054     0.14000
H37         H  0.39408185  0.23983325  0.47908485     0.14000
N38         N  0.98545569  0.54262547  0.15524498    -0.02300
C39         C  0.36996429  0.98198132  0.14639285     0.00300
C40         C  0.34761270  0.94244546  0.15756896    -0.22600
C41         C  0.00888633  0.52945771  0.20047381    -0.22800
C42         C  0.01391714  0.51623297  0.17285278     0.00200
H43         H  0.31225840  0.94043696  0.16594035     0.14000
H44         H  0.02417617  0.51236033  0.21864891     0.14000
Zn45       Zn  0.19116779  0.21408955  0.17754694     1.49700
Zn46       Zn  0.26817402  0.23592386  0.22394046     1.49400
Zn47       Zn  0.23891876  0.31733975  0.18083455     1.49100
Zn48       Zn  0.16739934  0.28177761  0.22610774     1.49500
O49         O  0.21662446  0.26187169  0.20191118    -1.82900
O50         O  0.23608403  0.16000798  0.17565774    -0.73600
O51         O  0.31893608  0.28535120  0.22850263    -0.73400
O52         O  0.25182106  0.29459833  0.14110915    -0.72900
O53         O  0.29440173  0.17528223  0.20579723    -0.73600
O54         O  0.19461652  0.23998488  0.13695135    -0.73200
O55         O  0.29581136  0.34737769  0.20233685    -0.73800
O56         O  0.13493795  0.33890006  0.20727280    -0.73100
O57         O  0.24664529  0.22865965  0.26461633    -0.73900
O58         O  0.18663702  0.36532193  0.17537731    -0.73300
O59         O  0.19447310  0.28761334  0.26592074    -0.73800
O60         O  0.11840196  0.23173273  0.23020878    -0.73700
O61         O  0.12792636  0.18635207  0.19291817    -0.73500
C62         C  0.27597434  0.14962199  0.18649022     0.78300
C63         C  0.32389981  0.32855377  0.22079879     0.78800
C64         C  0.22762906  0.26573474  0.12620192     0.77800
C65         C  0.14645347  0.36762421  0.18704858     0.78200
C66         C  0.22312163  0.25893116  0.27836153     0.79300
C67         C  0.10583094  0.19655877  0.21561614     0.78300
N68         N  0.03146959  0.45759900  0.26445066    -0.02300
C69         C  0.48912081  0.42951329  0.25493497     0.00300
C70         C  0.52083766  0.41021072  0.23656677    -0.22600
C71         C  0.90287187  0.11439576  0.23726076    -0.22800
C72         C  0.93984461  0.09376196  0.25161299     0.00200
H73         H  0.51897651  0.37549445  0.22749279     0.14000
H74         H  0.90407222  0.14793732  0.22591600     0.14000
C75         C  0.01849717  0.09488449  0.22829706    -0.20100
C76         C  0.98773649  0.11429409  0.24813042    -0.08100
C77         C  0.99656199  0.16041347  0.25726445     0.30700
C78         C  0.03499791  0.18639488  0.24671506    -0.20100
C79         C  0.06520439  0.16756544  0.22624067    -0.08200
C80         C  0.05685246  0.12103235  0.21744444     0.30700
F81         F  0.08498258  0.10106511  0.19794107    -0.18700
H82         H  0.01137292  0.06025952  0.22000555     0.19100
H83         H  0.04016809  0.22210302  0.25398935     0.19100
F84         F  0.96620875  0.18141806  0.27512575    -0.18700
C85         C  0.36417623  0.40652006  0.23207683    -0.20100
C86         C  0.36270117  0.35675608  0.23436609    -0.08100
C87         C  0.39850752  0.33400303  0.25054265     0.30700
C88         C  0.43687134  0.35966195  0.26111824    -0.20100
C89         C  0.44084507  0.40862640  0.25618522    -0.08200
C90         C  0.40261177  0.43231796  0.24314039     0.30700
F91         F  0.40466820  0.47978620  0.23843778    -0.18700
H92         H  0.33640661  0.42540110  0.22081830     0.19100
H93         H  0.46582049  0.34050756  0.27103627     0.19100
F94         F  0.39836435  0.28638212  0.25472555    -0.18700
C95         C  0.03127140  0.43072274  0.17110153    -0.20100
C96         C  0.04647139  0.47745297  0.16605816    -0.08100
C97         C  0.09513652  0.48676039  0.16476450     0.30700
C98         C  0.12776560  0.45036915  0.16990649    -0.20100
C99         C  0.11237305  0.40429130  0.17701753    -0.08200
C100        C  0.06375053  0.39437692  0.17615612     0.30700
F101        F  0.04749155  0.34989761  0.18159603    -0.18700
H102        H  0.99404576  0.42297027  0.17321374     0.19100
H103        H  0.16497994  0.45893836  0.17034590     0.19100
F104        F  0.11101863  0.53185280  0.16129996    -0.18700
C105        C  0.34977666  0.10176619  0.17993051    -0.20100
C106        C  0.30123083  0.10781171  0.17522305    -0.08100
C107        C  0.27745147  0.07476572  0.15807902     0.30700
C108        C  0.30138965  0.03646395  0.14681623    -0.20100
C109        C  0.34964650  0.02955594  0.15208537    -0.08200
C110        C  0.37372506  0.06329178  0.16854575     0.30700
F111        F  0.42034878  0.05920205  0.17397398    -0.18700
H112        H  0.36937973  0.12691875  0.19246293     0.19100
H113        H  0.28154825  0.01075826  0.13480412     0.19100
F114        F  0.23050828  0.07828328  0.15285129    -0.18700
C115        C  0.27333054  0.28608059  0.05101156    -0.20100
C116        C  0.27800912  0.23926069  0.04199581    -0.08100
C117        C  0.26353709  0.20217023  0.06076905     0.30700
C118        C  0.24437097  0.21182399  0.08715529    -0.20100
C119        C  0.24103084  0.25828332  0.09636534    -0.08200
C120        C  0.25555816  0.29555964  0.07809476     0.30700
F121        F  0.25269305  0.34100156  0.08646476    -0.18700
H122        H  0.28403058  0.31539019  0.03741999     0.19100
H123        H  0.23477032  0.18248139  0.10123267     0.19100
F124        F  0.27054793  0.15616724  0.05463050    -0.18700
C125        C  0.40337937  0.31446334  0.51756206    -0.20100
C126        C  0.35576735  0.31294660  0.50979778    -0.08100
C127        C  0.33599123  0.35286851  0.49599255     0.30700
C128        C  0.36515073  0.38999426  0.48600355    -0.20100
C129        C  0.41428871  0.38778792  0.49000622    -0.08200
C130        C  0.43255579  0.35070672  0.50745424     0.30700
F131        F  0.47935546  0.34668740  0.51285819    -0.18700
H132        H  0.41936083  0.28416004  0.52827058     0.19100
H133        H  0.34963280  0.41882160  0.47368885     0.19100
F134        F  0.28945857  0.35333234  0.48930894    -0.18700
C135        C  0.15792182  0.18488747  0.47205215    -0.20100
C136        C  0.16201052  0.13872095  0.46182714    -0.08100
C137        C  0.20578064  0.11642097  0.46335122     0.30700
C138        C  0.24458714  0.13951245  0.47501475    -0.20100
C139        C  0.24141628  0.18619651  0.48465205    -0.08200
C140        C  0.19749716  0.20887498  0.48291876     0.30700
F141        F  0.20011384  0.23083118  0.00619256    -0.18700
H142        H  0.12404195  0.20225509  0.47164492     0.19100
H143        H  0.27735597  0.12030840  0.47658467     0.19100
F144        F  0.21038611  0.07101706  0.45513801    -0.18700
C145        C  0.54834167  0.50457260  0.33345798    -0.20100
C146        C  0.50698743  0.50928407  0.34902815    -0.08100
C147        C  0.93196814  0.02056370  0.34053723     0.30700
C148        C  0.91482112  0.02793027  0.31280086    -0.20100
C149        C  0.50308929  0.49015574  0.29009320    -0.08200
C150        C  0.54669254  0.49420442  0.30469551     0.30700
F151        F  0.58808989  0.48504443  0.29179670    -0.18700
H152        H  0.58240104  0.50635371  0.34397227     0.19100
H153        H  0.87737162  0.03309346  0.30974361     0.19100
F154        F  0.90077592  0.01960388  0.36228664    -0.18700
C155        C  0.98310422  0.57790310  0.07734744    -0.20100
C156        C  0.52365048  0.50048405  0.05742910    -0.08100
C157        C  0.46529937  0.96033878  0.06621197     0.30700
C158        C  0.45016318  0.94963066  0.09372009    -0.20100
C159        C  0.50210003  0.48800970  0.11584673    -0.08200
C160        C  0.98304010  0.58114175  0.10710277     0.30700
F161        F  0.98610920  0.62445245  0.11872487    -0.18700
H162        H  0.98406884  0.61014009  0.06446184     0.19100
H163        H  0.44887177  0.91273213  0.10022335     0.19100
F164        F  0.47716405  0.92425458  0.04918692    -0.18700
C165        C  0.27945841  0.26579071  0.31823522    -0.20100
C166        C  0.23256516  0.26307537  0.30905904    -0.08100
C167        C  0.19631674  0.26768497  0.32895003     0.30700
C168        C  0.20724157  0.27511078  0.35770844    -0.20100
C169        C  0.25436154  0.27947272  0.36677998    -0.08200
C170        C  0.29039235  0.27496112  0.34651475     0.30700
F171        F  0.33620271  0.28284525  0.35341515    -0.18700
H172        H  0.30783484  0.26351377  0.30305484     0.19100
H173        H  0.17892997  0.27846625  0.37275409     0.19100
F174        F  0.15056294  0.26502856  0.32056440    -0.17700
C175        C  0.33595081  0.15163024  0.41261944    -0.20100
C176        C  0.38358668  0.15427990  0.42098320    -0.08100
C177        C  0.40691722  0.19819463  0.41931068     0.30700
C178        C  0.38192663  0.23915734  0.41269034    -0.20100
C179        C  0.33309932  0.23752707  0.40798779    -0.08200
C180        C  0.31048594  0.19316347  0.40663808     0.30700
F181        F  0.26324999  0.19010135  0.40249291    -0.18700
H182        H  0.31746434  0.11803235  0.41333726     0.19100
H183        H  0.40041999  0.27274065  0.41298446     0.19100
F184        F  0.45365012  0.20188794  0.42526300    -0.18700
C185        C  0.13111194  0.36328507  0.43259424    -0.20100
C186        C  0.12579231  0.40977997  0.42194070    -0.08100
C187        C  0.15807854  0.42699310  0.40132503     0.30700
C188        C  0.19686827  0.39985537  0.39377930    -0.20100
C189        C  0.20354039  0.35467975  0.40581193    -0.08200
C190        C  0.16937395  0.33582887  0.42440863     0.30700
F191        F  0.17534356  0.29231651  0.43656885    -0.18700
H192        H  0.10653222  0.34870378  0.44800663     0.19100
H193        H  0.22345472  0.41537442  0.37998075     0.19100
F194        F  0.15434441  0.47135766  0.38993136    -0.18700
N195        N  0.21977637  0.26080412  0.90298905    -0.02300
C196        C  0.25587873  0.24354083  0.91915593     0.00300
C197        C  0.25248819  0.25790723  0.94665378    -0.22600
C198        C  0.21224645  0.28333712  0.94842018    -0.22800
C199        C  0.19238801  0.28432448  0.92155862     0.00200
H200        H  0.27692860  0.25035510  0.96348771     0.14000
H201        H  0.19948547  0.30073224  0.96709131     0.14000
Zn202      Zn  0.46840156  0.07060559  0.97129425     1.49700
Zn203      Zn  0.03130048  0.52850107  0.92826051     1.49400
Zn204      Zn  0.54539740  0.45507439  0.97215109     1.49100
Zn205      Zn  0.46291707  0.49515031  0.93119252     1.49500
O206        O  0.52363387  0.50810461  0.94928816    -1.82900
O207        O  0.08309167  0.09564225  0.98258847    -0.73600
O208        O  0.06282304  0.46675220  0.92502643    -0.73400
O209        O  0.55878832  0.47361122  0.51846247    -0.72900
O210        O  0.11856624  0.06949490  0.94415702    -0.73600
O211        O  0.47625423  0.06298670  0.51444123    -0.73200
O212        O  0.04377168  0.42703381  0.96462395    -0.73800
O213        O  0.43021316  0.43838934  0.95285436    -0.73100
O214        O  0.00699356  0.54105714  0.88865139    -0.73900
O215        O  0.49140964  0.40971869  0.97735880    -0.73300
O216        O  0.47518739  0.48682409  0.88891910    -0.73800
O217        O  0.38311903  0.05508784  0.92255975    -0.73700
O218        O  0.41788915  0.10760199  0.95064538    -0.73500
C219        C  0.11889394  0.09418009  0.96657914     0.78300
C220        C  0.06518705  0.42982524  0.94079299     0.78800
C221        C  0.53252443  0.50127973  0.53242781     0.77800
C222        C  0.44791948  0.40795563  0.97058245     0.78200
C223        C  0.50413839  0.51048673  0.87328210     0.79300
C224        C  0.38721742  0.09698286  0.93175628     0.78300
N225        N  0.30006656  0.22865380  0.01513096    -0.02300
C226        C  0.29320771  0.18689335  0.00145316     0.00300
C227        C  0.33437868  0.17370060  0.98849876    -0.22600
C228        C  0.36636662  0.20913514  0.99230614    -0.22800
C229        C  0.34454072  0.24326098  0.00786568     0.00200
H230        H  0.33991428  0.14319596  0.97579612     0.14000
H231        H  0.40064880  0.21169400  0.98249324     0.14000
N232        N  0.94853714  0.47740780  0.64549683    -0.02300
C233        C  0.46890430  0.05208256  0.67065856     0.00300
C234        C  0.47547216  0.03503405  0.69810290    -0.22600
C235        C  0.92043121  0.41980120  0.67491058    -0.22800
C236        C  0.95834295  0.43532276  0.65895885     0.00200
H237        H  0.45952322  0.04791569  0.71724577     0.14000
H238        H  0.91835514  0.38827321  0.68830058     0.14000
Zn239      Zn  0.21621863  0.20539357  0.67682029     1.49700
Zn240      Zn  0.27153451  0.24051291  0.72952072     1.49400
Zn241      Zn  0.23323065  0.31407044  0.68243627     1.49100
Zn242      Zn  0.16460346  0.25673887  0.72477230     1.49500
O243        O  0.22170656  0.25521242  0.70348112    -1.82900
O244        O  0.27803434  0.17331335  0.67316843    -0.73600
O245        O  0.30961403  0.29808996  0.73473981    -0.73400
O246        O  0.24966032  0.29696355  0.64133199    -0.72900
O247        O  0.31624122  0.19261212  0.71267694    -0.73600
O248        O  0.20513489  0.23217758  0.63742706    -0.73200
O249        O  0.28513047  0.35319104  0.70368136    -0.73800
O250        O  0.12273173  0.30405172  0.70448287    -0.73100
O251        O  0.24631913  0.22778252  0.76922783    -0.73900
O252        O  0.17079497  0.34856155  0.67753624    -0.73300
O253        O  0.17938066  0.26864083  0.76633736    -0.73800
O254        O  0.13297487  0.19271400  0.72562217    -0.73700
O255        O  0.16983766  0.15580265  0.69113638    -0.73500
C256        C  0.31443464  0.17129770  0.68899713     0.78300
C257        C  0.31237526  0.33970627  0.72424112     0.78800
C258        C  0.23026563  0.26507677  0.62610755     0.77800
C259        C  0.12954407  0.33731120  0.68604782     0.78200
C260        C  0.21215512  0.24885975  0.78105506     0.79300
C261        C  0.14045763  0.15571239  0.71154446     0.78300
N262        N  0.99244217  0.46666675  0.75964420    -0.02300
C263        C  0.47439688  0.44923096  0.74370670     0.00300
C264        C  0.49894542  0.43295198  0.72098541    -0.22600
C265        C  0.06723968  0.93746766  0.73036781    -0.22800
C266        C  0.05398920  0.97704962  0.74472878     0.00200
H267        H  0.49275185  0.40014174  0.71048023     0.14000
H268        H  0.09553852  0.93480887  0.71543595     0.14000
C269        C  0.12324702  0.02637737  0.73008401    -0.20100
C270        C  0.07623544  0.02428120  0.73923818    -0.08100
C271        C  0.05055616  0.06661249  0.74018125     0.30700
C272        C  0.07124695  0.10958157  0.73106073    -0.20100
C273        C  0.11748262  0.11079270  0.72053368    -0.08200
C274        C  0.14354189  0.06883043  0.72070532     0.30700
F275        F  0.18931823  0.06901981  0.71259249    -0.18700
H276        H  0.14460057  0.99485200  0.72998143     0.19100
H277        H  0.05083464  0.14172931  0.73162530     0.19100
F278        F  0.00498844  0.06628004  0.74861453    -0.18700
C279        C  0.34796019  0.42050507  0.73254010    -0.20100
C280        C  0.34967018  0.37110992  0.73613081    -0.08100
C281        C  0.38911138  0.35111947  0.75042269     0.30700
C282        C  0.42781694  0.37917517  0.75755339    -0.20100
C283        C  0.42838408  0.42756942  0.75075910    -0.08200
C284        C  0.38706309  0.44860676  0.73978455     0.30700
F285        F  0.38658320  0.49540867  0.73288466    -0.18700
H286        H  0.31765758  0.43703674  0.72243880     0.19100
H287        H  0.45952765  0.36214641  0.76551868     0.19100
F288        F  0.39255259  0.30374130  0.75517632    -0.18700
C289        C  0.00371610  0.36069634  0.66418878    -0.20100
C290        C  0.00404976  0.40971715  0.65887207    -0.08100
C291        C  0.04779405  0.43354277  0.65752149     0.30700
C292        C  0.08965198  0.40911183  0.66409960    -0.20100
C293        C  0.08786432  0.36154597  0.67354461    -0.08200
C294        C  0.04481551  0.33697463  0.67183338     0.30700
F295        F  0.04207936  0.29003584  0.67834059    -0.18700
H296        H  0.97099291  0.34087266  0.66403986     0.19100
H297        H  0.12263964  0.42849815  0.66457763     0.19100
F298        F  0.04987910  0.48097512  0.65275703    -0.18700
C299        C  0.40101621  0.15830499  0.68798419    -0.20100
C300        C  0.35574790  0.14471965  0.67918359    -0.08100
C301        C  0.35078604  0.10603560  0.66093410     0.30700
C302        C  0.39002973  0.07871862  0.65423802    -0.20100
C303        C  0.43457290  0.09008802  0.66525001    -0.08200
C304        C  0.44010334  0.13158390  0.68088480     0.30700
F305        F  0.48281433  0.14322240  0.69199459    -0.18700
H306        H  0.40600463  0.18873583  0.70126460     0.19100
H307        H  0.38487034  0.04626293  0.64281766     0.19100
F308        F  0.30763938  0.09224167  0.65152305    -0.18700
C309        C  0.26678887  0.29983424  0.55049535    -0.20100
C310        C  0.26705539  0.25564304  0.53715232    -0.08100
C311        C  0.25087103  0.21585030  0.55314982     0.30700
C312        C  0.23642702  0.22022563  0.58131270    -0.20100
C313        C  0.23919824  0.26372401  0.59498528    -0.08200
C314        C  0.25380273  0.30378526  0.57911393     0.30700
F315        F  0.25648211  0.34672255  0.59131440    -0.18700
H316        H  0.27816598  0.33136633  0.53937948     0.19100
H317        H  0.22587402  0.18855099  0.59302864     0.19100
F318        F  0.25258966  0.17160955  0.54280116    -0.18700
C319        C  0.41222245  0.29775501  0.01414797    -0.20100
C320        C  0.36442584  0.29231216  0.00710082    -0.08100
C321        C  0.34270230  0.32875472  0.99080771     0.30700
C322        C  0.36942526  0.36677023  0.97945288    -0.20100
C323        C  0.41828320  0.36979195  0.98440957    -0.08200
C324        C  0.43879718  0.33577599  0.00323116     0.30700
F325        F  0.48529572  0.33743633  0.01009027    -0.18700
H326        H  0.43007684  0.27022282  0.02640446     0.19100
H327        H  0.35203910  0.39303251  0.96600707     0.19100
F328        F  0.29625682  0.32641149  0.98430702    -0.18700
C329        C  0.16149877  0.16397573  0.98721767    -0.20100
C330        C  0.16268894  0.11879902  0.97546702    -0.08100
C331        C  0.20583293  0.09511868  0.97467801     0.30700
C332        C  0.24690037  0.11643071  0.98491445    -0.20100
C333        C  0.24680828  0.16274195  0.99541255    -0.08200
C334        C  0.20304695  0.18611245  0.99673869     0.30700
F335        F  0.19296348  0.25423882  0.49113078    -0.18700
H336        H  0.12840850  0.18258049  0.98848829     0.19100
H337        H  0.27900619  0.09621297  0.98430349     0.19100
F338        F  0.20811311  0.05044302  0.96489530    -0.18700
C339        C  0.54061831  0.50801383  0.82579002    -0.20100
C340        C  0.49954375  0.50980109  0.84196424    -0.08100
C341        C  0.96570373  0.99235773  0.83392365     0.30700
C342        C  0.96852123  0.98333493  0.80472644    -0.20100
C343        C  0.49440767  0.50315913  0.78204951    -0.08200
C344        C  0.53829344  0.50383858  0.79636503     0.30700
F345        F  0.57909222  0.49681575  0.78233149    -0.18700
H346        H  0.57485294  0.50739838  0.83615340     0.19100
H347        H  0.93668872  0.97364382  0.79360707     0.19100
F348        F  0.92335189  0.98876584  0.84697982    -0.18700
C349        C  0.97589150  0.54470574  0.57705547    -0.20100
C350        C  0.51952702  0.48729005  0.56204411    -0.08100
C351        C  0.48781092  0.98617154  0.57608101     0.30700
C352        C  0.48662941  0.98550634  0.60577887    -0.20100
C353        C  0.48452539  0.45921921  0.61644619    -0.08200
C354        C  0.96649978  0.53571128  0.60602493     0.30700
F355        F  0.95961919  0.57273720  0.62322071    -0.18700
H356        H  0.97615870  0.58083065  0.56890831     0.19100
H357        H  0.48218976  0.95194236  0.61696423     0.19100
F358        F  0.48341371  0.94465700  0.56237376    -0.18700
C359        C  0.25506413  0.26243162  0.82624599    -0.20100
C360        C  0.21243881  0.25230345  0.81241592    -0.08100
C361        C  0.17124951  0.24701662  0.82870434     0.30700
C362        C  0.17340583  0.25024474  0.85851583    -0.20100
C363        C  0.21642495  0.25965962  0.87231883    -0.08200
C364        C  0.25696751  0.26706536  0.85569695     0.30700
F365        F  0.29834804  0.28030352  0.86782004    -0.18700
H366        H  0.28692924  0.26802820  0.81406638     0.19100
H367        H  0.14177892  0.24459533  0.87086190     0.19100
F368        F  0.12940779  0.23722929  0.81592261    -0.17700
C369        C  0.30874271  0.12402796  0.91322567    -0.20100
C370        C  0.35565411  0.13448943  0.92061620    -0.08100
C371        C  0.37078035  0.18194516  0.92031555     0.30700
C372        C  0.33831282  0.21817397  0.91614083    -0.20100
C373        C  0.29060111  0.20777938  0.91154711    -0.08200
C374        C  0.27623563  0.16053911  0.90880448     0.30700
F375        F  0.22996443  0.14963519  0.90535443    -0.18700
H376        H  0.29638324  0.08774433  0.91325256     0.19100
H377        H  0.34970598  0.25441657  0.91887913     0.19100
F378        F  0.41626954  0.19341747  0.92619338    -0.18700
C379        C  0.08293671  0.34350219  0.94073874    -0.20100
C380        C  0.09283598  0.38948286  0.93063483    -0.08100
C381        C  0.12914239  0.39633443  0.91054970     0.30700
C382        C  0.15803864  0.35868905  0.90332552    -0.20100
C383        C  0.15098081  0.31388613  0.91581962    -0.08200
C384        C  0.11142649  0.30589169  0.93315903     0.30700
F385        F  0.10399106  0.26270686  0.94560860    -0.18700
H386        H  0.05432040  0.33694871  0.95543639     0.19100
H387        H  0.18895544  0.36572328  0.89051767     0.19100
F388        F  0.13944704  0.44007673  0.89977399    -0.18700
N389        N  0.31101876  0.79000511  0.39398212    -0.02300
C390        C  0.35421936  0.78305390  0.40666441     0.00300
C391        C  0.36863274  0.82391728  0.42002710    -0.22600
C392        C  0.33353460  0.85615580  0.41628508    -0.22800
C393        C  0.29785315  0.83435891  0.40155929     0.00200
H394        H  0.39984165  0.82923762  0.43291659     0.14000
H395        H  0.33261344  0.89107291  0.42497636     0.14000
Zn396      Zn  0.52976740  0.56683840  0.48127064     1.49700
Zn397      Zn  0.07562418  0.03036240  0.42030586     1.49400
Zn398      Zn  0.50319050  0.97030289  0.47783598     1.49100
Zn399      Zn  0.43282325  0.00922301  0.42999434     1.49500
O400        O  0.49040377  0.02100315  0.45150083    -1.82900
O401        O  0.03549783  0.60884789  0.47633617    -0.73600
O402        O  0.12074341  0.97600144  0.41593613    -0.73400
O403        O  0.50853936  0.99236667  0.01402397    -0.72900
O404        O  0.07447410  0.58360306  0.43890603    -0.73600
O405        O  0.50602678  0.53902317  0.01321722    -0.73200
O406        O  0.11130738  0.92916270  0.45412801    -0.73800
O407        O  0.39216465  0.95737274  0.45114127    -0.73100
O408        O  0.03737520  0.03556210  0.38266617    -0.73900
O409        O  0.44523727  0.93262627  0.48297371    -0.73300
O410        O  0.45150678  0.99372051  0.38904518    -0.73800
O411        O  0.43751254  0.57117540  0.43632681    -0.73700
O412        O  0.48298930  0.61522601  0.46398721    -0.73500
C413        C  0.07185373  0.60925064  0.46075294     0.78300
C414        C  0.13225951  0.93936942  0.43065721     0.78800
C415        C  0.47673829  0.01705587  0.02562305     0.77800
C416        C  0.40428104  0.93009950  0.47214830     0.78200
C417        C  0.48466242  0.01254891  0.37417717     0.79300
C418        C  0.44920123  0.61133122  0.44593529     0.78300
N419        N  0.25076087  0.75101019  0.50287064    -0.02300
C420        C  0.23969530  0.71612538  0.48438011     0.00300
C421        C  0.27519581  0.71029315  0.46500887    -0.22600
C422        C  0.30869295  0.74327662  0.47094221    -0.22800
C423        C  0.29252089  0.76869958  0.49331127     0.00200
H424        H  0.27601548  0.68510567  0.44815393     0.14000
H425        H  0.34116848  0.74946701  0.45992156     0.14000
N426        N  0.99032723  0.98969823  0.15282541    -0.02300
C427        C  0.44295395  0.49525113  0.15385645     0.00300
C428        C  0.42398534  0.46354108  0.17327797    -0.22600
C429        C  0.97893180  0.96376683  0.19803924    -0.22800
C430        C  0.00306672  0.95686129  0.17314570     0.00200
H431        H  0.39149238  0.46761879  0.18472711     0.14000
H432        H  0.98270169  0.94401621  0.21791312     0.14000
Zn433      Zn  0.23240718  0.68968170  0.17825898     1.49700
Zn434      Zn  0.30252518  0.72566478  0.22467097     1.49400
Zn435      Zn  0.25176759  0.79565887  0.18135059     1.49100
Zn436      Zn  0.19334932  0.74335142  0.23008048     1.49500
O437        O  0.24502522  0.73885567  0.20396918    -1.82900
O438        O  0.29152381  0.65514065  0.17078860    -0.73600
O439        O  0.33979092  0.78577621  0.22812034    -0.73400
O440        O  0.26012124  0.77961969  0.13960557    -0.72900
O441        O  0.34221597  0.67541578  0.20453997    -0.73600
O442        O  0.21358981  0.71592636  0.13988665    -0.73200
O443        O  0.30191317  0.83680802  0.19959038    -0.73800
O444        O  0.14822971  0.79454442  0.21456819    -0.73100
O445        O  0.28654089  0.71206537  0.26599749    -0.73900
O446        O  0.19159850  0.83080867  0.18132729    -0.73300
O447        O  0.22128127  0.75510751  0.26952903    -0.73800
O448        O  0.16016078  0.67974500  0.23351248    -0.73700
O449        O  0.18772286  0.64238616  0.19607812    -0.73500
C450        C  0.33193209  0.65174698  0.18240236     0.78300
C451        C  0.33374688  0.82756915  0.21827173     0.78800
C452        C  0.23632891  0.74829917  0.12638521     0.77800
C453        C  0.15316808  0.82604736  0.19474930     0.78200
C454        C  0.25767382  0.73556708  0.28085786     0.79300
C455        C  0.16328945  0.64272905  0.21871539     0.78300
N456        N  0.92748160  0.05013285  0.26236199    -0.02300
C457        C  0.46030587  0.97835863  0.23522010     0.00300
C458        C  0.46901488  0.99111645  0.20752906    -0.22600
C459        C  0.09333035  0.42201198  0.24478778    -0.22800
C460        C  0.07626088  0.46431901  0.25459628     0.00200
H461        H  0.44784387  0.98210318  0.18961411     0.14000
H462        H  0.12755880  0.41501513  0.23630196     0.14000
C463        C  0.14379118  0.51270497  0.23481436    -0.20100
C464        C  0.10044827  0.51152338  0.24929550    -0.08100
C465        C  0.07893617  0.55558598  0.25461333     0.30700
C466        C  0.09951534  0.59814609  0.24487696    -0.20100
C467        C  0.14104374  0.59811756  0.22898516    -0.08200
C468        C  0.16321758  0.55489126  0.22434591     0.30700
F469        F  0.20439735  0.55321660  0.20994347    -0.18700
H470        H  0.16287231  0.48094922  0.23044471     0.19100
H471        H  0.08199343  0.63116226  0.24892984     0.19100
F472        F  0.03646891  0.55831522  0.26728453    -0.18700
C473        C  0.34770810  0.91315527  0.22693964    -0.20100
C474        C  0.36374306  0.86637608  0.22912714    -0.08100
C475        C  0.40883527  0.85775385  0.24087299     0.30700
C476        C  0.43888597  0.89561723  0.24715999    -0.20100
C477        C  0.42434397  0.94227054  0.24192484    -0.08200
C478        C  0.37783091  0.95080370  0.23297468     0.30700
F479        F  0.36322213  0.99562847  0.22721534    -0.18700
H480        H  0.31266870  0.92075320  0.21887897     0.19100
H481        H  0.47504019  0.88842964  0.25330253     0.19100
F482        F  0.42541264  0.81305013  0.24401918    -0.18700
C483        C  0.03048999  0.87624719  0.18548981    -0.20100
C484        C  0.03962070  0.92004217  0.17177827    -0.08100
C485        C  0.08586241  0.93110476  0.16361857     0.30700
C486        C  0.12247031  0.89986061  0.17064553    -0.20100
C487        C  0.11367538  0.85757916  0.18632271    -0.08200
C488        C  0.06697057  0.84552015  0.19296235     0.30700
F489        F  0.05645337  0.80449091  0.20711898    -0.18700
H490        H  0.99501766  0.86701667  0.19197931     0.19100
H491        H  0.15808082  0.90982055  0.16488607     0.19100
F492        F  0.09635076  0.97354589  0.15111137    -0.18700
C493        C  0.41142357  0.61250762  0.18195365    -0.20100
C494        C  0.36622639  0.61833946  0.17000003    -0.08100
C495        C  0.35288611  0.58936786  0.14706738     0.30700
C496        C  0.38171347  0.55230224  0.13885916    -0.20100
C497        C  0.42477407  0.54395949  0.15263539    -0.08200
C498        C  0.44053092  0.57578219  0.17325854     0.30700
F499        F  0.48193414  0.56809498  0.18714728    -0.18700
H500        H  0.42321959  0.63457148  0.19916340     0.19100
H501        H  0.36857209  0.52761378  0.12336010     0.19100
F502        F  0.31047480  0.59430929  0.13381676    -0.18700
C503        C  0.25038593  0.78336059  0.04821133    -0.20100
C504        C  0.25018332  0.73880898  0.03543518    -0.08100
C505        C  0.24149778  0.69843244  0.05294429     0.30700
C506        C  0.23425163  0.70268959  0.08204839    -0.20100
C507        C  0.23736203  0.74675481  0.09493482    -0.08200
C508        C  0.24475910  0.78735086  0.07770128     0.30700
F509        F  0.24724972  0.83072552  0.08935321    -0.18700
H510        H  0.25647418  0.81514848  0.03567398     0.19100
H511        H  0.22928826  0.67073944  0.09487080     0.19100
F512        F  0.24403962  0.65415905  0.04267421    -0.18700
C513        C  0.36272967  0.81455318  0.50624383    -0.20100
C514        C  0.31463553  0.81465395  0.49965732    -0.08100
C515        C  0.29437508  0.85642505  0.48841121     0.30700
C516        C  0.32295696  0.89545218  0.48089520    -0.20100
C517        C  0.37212764  0.89301914  0.48426719    -0.08200
C518        C  0.39128110  0.85303404  0.49870171     0.30700
F519        F  0.43836202  0.84885308  0.50322449    -0.18700
H520        H  0.37915473  0.78248066  0.51441378     0.19100
H521        H  0.30701539  0.92621615  0.47072755     0.19100
F522        F  0.24783910  0.85755124  0.48178315    -0.18700
C523        C  0.11019730  0.68265400  0.47973989    -0.20100
C524        C  0.11365808  0.63666214  0.46929812    -0.08100
C525        C  0.15804709  0.61546355  0.46780168     0.30700
C526        C  0.19839340  0.64070932  0.47489843    -0.20100
C527        C  0.19564221  0.68785030  0.48333599    -0.08200
C528        C  0.15109540  0.70842757  0.48649616     0.30700
F529        F  0.16604384  0.74321924  0.99552893    -0.18700
H530        H  0.07609987  0.69917277  0.48154041     0.19100
H531        H  0.23221498  0.62366428  0.47297710     0.19100
F532        F  0.16244385  0.57003387  0.45956432    -0.18700
C533        C  0.52954713  0.99896708  0.32985132    -0.20100
C534        C  0.48605310  0.00634797  0.34307561    -0.08100
C535        C  0.95470387  0.48830057  0.32638155     0.30700
C536        C  0.96859529  0.47740843  0.29869328    -0.20100
C537        C  0.49139689  0.99821286  0.28337939    -0.08200
C538        C  0.53222148  0.99426437  0.30033903     0.30700
F539        F  0.57445614  0.98489031  0.28854119    -0.18700
H540        H  0.56152997  0.99624312  0.34250396     0.19100
H541        H  0.94179074  0.47075333  0.28281912     0.19100
F542        F  0.90823917  0.49005132  0.33271604    -0.18700
C543        C  0.02961117  0.03647085  0.08134049    -0.20100
C544        C  0.46519690  0.00716731  0.05577460    -0.08100
C545        C  0.51902240  0.45494978  0.06954057     0.30700
C546        C  0.50787138  0.44894699  0.09820591    -0.20100
C547        C  0.43508362  0.98520367  0.11209069    -0.08200
C548        C  0.02057651  0.03384696  0.11054182     0.30700
F549        F  0.02926024  0.07227303  0.12637609    -0.18700
H550        H  0.04121564  0.06975598  0.07183257     0.19100
H551        H  0.50180987  0.41336574  0.10635563     0.19100
F552        F  0.52192072  0.41613477  0.05322343    -0.18700
C553        C  0.31703165  0.74485904  0.31940112    -0.20100
C554        C  0.26944284  0.74328735  0.31129080    -0.08100
C555        C  0.23515316  0.75349838  0.33170301     0.30700
C556        C  0.24871453  0.76592512  0.35943535    -0.20100
C557        C  0.29662781  0.76966389  0.36713418    -0.08200
C558        C  0.33061725  0.75864499  0.34656699     0.30700
F559        F  0.37730760  0.76452736  0.35175418    -0.18700
H560        H  0.34428718  0.73823044  0.30403225     0.19100
H561        H  0.22171142  0.77382377  0.37463093     0.19100
F562        F  0.18868205  0.75209279  0.32479691    -0.17700
C563        C  0.37924859  0.65196627  0.42252248    -0.20100
C564        C  0.42501639  0.65445455  0.43427235    -0.08100
C565        C  0.44924842  0.69783675  0.43224420     0.30700
C566        C  0.42725741  0.73800958  0.42057105    -0.20100
C567        C  0.37998040  0.73689331  0.41110045    -0.08200
C568        C  0.35691072  0.69254547  0.41102841     0.30700
F569        F  0.31210283  0.68838988  0.40123873    -0.18700
H570        H  0.36023322  0.61866833  0.42280397     0.19100
H571        H  0.44734237  0.77060348  0.41976387     0.19100
F572        F  0.49471202  0.70148283  0.44112215    -0.18700
C573        C  0.17739994  0.86221842  0.43014299    -0.20100
C574        C  0.17128694  0.90904871  0.42001595    -0.08100
C575        C  0.20368132  0.92715053  0.39975641     0.30700
C576        C  0.24219840  0.90022154  0.39134189    -0.20100
C577        C  0.24943682  0.85432463  0.40236595    -0.08200
C578        C  0.21588222  0.83509698  0.42136808     0.30700
F579        F  0.22245337  0.79153984  0.43332004    -0.18700
H580        H  0.15317881  0.84700177  0.44555269     0.19100
H581        H  0.26828918  0.91646434  0.37748417     0.19100
F582        F  0.20015798  0.97215817  0.38935166    -0.18700
N583        N  0.28562373  0.77177640  0.89255326    -0.02300
C584        C  0.32725502  0.76412223  0.90662823     0.00300
C585        C  0.33990501  0.80343458  0.92192865    -0.22600
C586        C  0.30483566  0.83569092  0.91786680    -0.22800
C587        C  0.27123044  0.81518052  0.90088029     0.00200
H588        H  0.37017504  0.80750258  0.93579177     0.14000
H589        H  0.30199197  0.86944032  0.92787785     0.14000
Zn590      Zn  0.51561671  0.56183154  0.97290012     1.49700
Zn591      Zn  0.07066293  0.02128036  0.92949650     1.49400
Zn592      Zn  0.50311957  0.96799218  0.97417010     1.49100
Zn593      Zn  0.42450378  0.99769035  0.92866451     1.49500
O594        O  0.48023620  0.01668253  0.94913150    -1.82900
O595        O  0.04151138  0.61235393  0.97592469    -0.73600
O596        O  0.10733819  0.96291343  0.92288007    -0.73400
O597        O  0.51505017  0.99470762  0.51731545    -0.72900
O598        O  0.07994725  0.57466238  0.94243290    -0.73600
O599        O  0.51466343  0.53851718  0.52071414    -0.73200
O600        O  0.09044290  0.91207579  0.95794397    -0.73800
O601        O  0.39227578  0.94346387  0.95149951    -0.73100
O602        O  0.03950739  0.03470089  0.89167852    -0.73900
O603        O  0.45242007  0.92059781  0.97902588    -0.73300
O604        O  0.44554564  0.97926780  0.88905617    -0.73800
O605        O  0.42256159  0.55477111  0.92921198    -0.73700
O606        O  0.46512856  0.60330437  0.95568910    -0.73500
C607        C  0.07900635  0.60474732  0.96218816     0.78300
C608        C  0.11312706  0.92285918  0.93513030     0.78800
C609        C  0.49490907  0.02929721  0.52918820     0.77800
C610        C  0.41012100  0.91568908  0.97060057     0.78200
C611        C  0.47459769  0.00248393  0.87335172     0.79300
C612        C  0.43152093  0.59610459  0.93812970     0.78300
N613        N  0.26609578  0.73356573  0.00640987    -0.02300
C614        C  0.25548913  0.69574221  0.99002639     0.00300
C615        C  0.29348519  0.68379391  0.97369799    -0.22600
C616        C  0.32796669  0.71620786  0.97881143    -0.22800
C617        C  0.31002425  0.74714094  0.99804884     0.00200
H618        H  0.29510181  0.65550972  0.95880174     0.14000
H619        H  0.36143797  0.71909452  0.96817685     0.14000
N620        N  0.99128634  0.97662840  0.64582696    -0.02300
C621        C  0.41925527  0.45697956  0.65138180     0.00300
C622        C  0.39712143  0.42093275  0.66625103    -0.22600
C623        C  0.96170637  0.92677083  0.67954160    -0.22800
C624        C  0.99841914  0.93543072  0.66099076     0.00200
H625        H  0.36287182  0.42226982  0.67599218     0.14000
H626        H  0.95803605  0.89744070  0.69451888     0.14000
Zn627      Zn  0.22280931  0.67555382  0.67394048     1.49700
Zn628      Zn  0.29216872  0.69926944  0.72297008     1.49400
Zn629      Zn  0.25510696  0.78249190  0.68116621     1.49100
Zn630      Zn  0.18675338  0.73136567  0.72499889     1.49500
O631        O  0.23991238  0.72250981  0.70064139    -1.82900
O632        O  0.27666261  0.63133165  0.66806068    -0.73600
O633        O  0.33940585  0.75102540  0.72568497    -0.73400
O634        O  0.25907800  0.77042460  0.63863960    -0.72900
O635        O  0.32424251  0.64162920  0.70505462    -0.73600
O636        O  0.21141843  0.70737311  0.63594617    -0.73200
O637        O  0.31458079  0.81285680  0.69986894    -0.73800
O638        O  0.14812705  0.78455391  0.70770230    -0.73100
O639        O  0.27252042  0.69229188  0.76429834    -0.73900
O640        O  0.19877021  0.82611499  0.68117272    -0.73300
O641        O  0.21108341  0.74122481  0.76497243    -0.73800
O642        O  0.14553401  0.67304990  0.72716248    -0.73700
O643        O  0.16895297  0.63473992  0.68911579    -0.73500
C644        C  0.31369650  0.62039102  0.68207340     0.78300
C645        C  0.34409038  0.79390063  0.71748024     0.78800
C646        C  0.23384667  0.74181018  0.62417538     0.77800
C647        C  0.15722356  0.81875387  0.69034630     0.78200
C648        C  0.24433185  0.71878842  0.77773753     0.79300
C649        C  0.14332440  0.63742135  0.71120864     0.78300
N650        N  0.01656221  0.96700775  0.76195030    -0.02300
C651        C  0.51194302  0.89059055  0.75501186     0.00300
C652        C  0.54881176  0.86910518  0.74173750    -0.22600
C653        C  0.04092791  0.43151560  0.72902805    -0.22800
C654        C  0.03149970  0.47256258  0.74304634     0.00200
H655        H  0.54842019  0.83480777  0.73204461     0.14000
H656        H  0.07017942  0.42498495  0.71548533     0.14000
C657        C  0.10696662  0.51211393  0.72904293    -0.20100
C658        C  0.06003028  0.51660217  0.73801256    -0.08100
C659        C  0.04058025  0.56227087  0.73868225     0.30700
C660        C  0.06757581  0.60198026  0.73008597    -0.20100
C661        C  0.11358308  0.59649704  0.71979792    -0.08200
C662        C  0.13299824  0.55114392  0.71956689     0.30700
F663        F  0.17793172  0.54459742  0.71090455    -0.18700
H664        H  0.12390797  0.47800084  0.72902380     0.19100
H665        H  0.05218019  0.63684050  0.73074450     0.19100
F666        F  0.99522968  0.56848734  0.74650759    -0.18700
C667        C  0.39035226  0.86987901  0.72383346    -0.20100
C668        C  0.38436161  0.82128544  0.72978907    -0.08100
C669        C  0.41707238  0.79883484  0.74850066     0.30700
C670        C  0.45592311  0.82350605  0.75910503    -0.20100
C671        C  0.46340205  0.87121196  0.75186956    -0.08200
C672        C  0.42932994  0.89465544  0.73480209     0.30700
F673        F  0.43486914  0.94082605  0.72737012    -0.18700
H674        H  0.36548788  0.88853457  0.71013376     0.19100
H675        H  0.48193698  0.80443264  0.77178619     0.19100
F676        F  0.41296697  0.75231744  0.75585785    -0.18700
C677        C  0.03441154  0.85649546  0.66861304    -0.20100
C678        C  0.04065434  0.90438941  0.66093626    -0.08100
C679        C  0.08690252  0.92250519  0.65911590     0.30700
C680        C  0.12529078  0.89420373  0.66779951    -0.20100
C681        C  0.11783889  0.84819291  0.67909323    -0.08200
C682        C  0.07208190  0.82903513  0.67813917     0.30700
F683        F  0.06326307  0.78384919  0.68700040    -0.18700
H684        H  0.99950605  0.84089352  0.66915109     0.19100
H685        H  0.16042252  0.90927960  0.66737432     0.19100
F686        F  0.09482907  0.96847576  0.65172762    -0.18700
C687        C  0.39028819  0.57533145  0.68159958    -0.20100
C688        C  0.34420156  0.58203206  0.67113435    -0.08100
C689        C  0.32710514  0.55096981  0.65024173     0.30700
C690        C  0.35454723  0.51330130  0.64124611    -0.20100
C691        C  0.39971345  0.50543407  0.65255541    -0.08200
C692        C  0.41761832  0.53736818  0.67255574     0.30700
F693        F  0.46023604  0.52986289  0.68492767    -0.18700
H694        H  0.40467146  0.59852464  0.69753312     0.19100
H695        H  0.33912220  0.48807988  0.62682981     0.19100
F696        F  0.28258753  0.55484020  0.63974964    -0.18700
C697        C  0.23596958  0.79152727  0.54817102    -0.20100
C698        C  0.23871285  0.74964867  0.53273390    -0.08100
C699        C  0.23681384  0.70593534  0.54786227     0.30700
C700        C  0.23271386  0.70440251  0.57732392    -0.20100
C701        C  0.23252414  0.74599632  0.59280363    -0.08200
C702        C  0.23334869  0.78983782  0.57803488     0.30700
F703        F  0.23185125  0.83081484  0.59241092    -0.18700
H704        H  0.23742491  0.82550673  0.53718051     0.19100
H705        H  0.23270000  0.67023892  0.58825317     0.19100
F706        F  0.24310207  0.66437893  0.53467984    -0.18700
C707        C  0.37980708  0.79764296  0.00572111    -0.20100
C708        C  0.33129746  0.79460948  0.00050573    -0.08100
C709        C  0.30765321  0.83446590  0.98919994     0.30700
C710        C  0.33299746  0.87537164  0.98141998    -0.20100
C711        C  0.38231054  0.87620107  0.98347121    -0.08200
C712        C  0.40525162  0.83777293  0.99725376     0.30700
F713        F  0.45276791  0.83712053  0.00063482    -0.18700
H714        H  0.39872274  0.76708685  0.01400759     0.19100
H715        H  0.31436053  0.90518828  0.97199102     0.19100
F716        F  0.26107712  0.83202474  0.98263388    -0.18700
C717        C  0.12369149  0.67522128  0.98040697    -0.20100
C718        C  0.12325481  0.62859938  0.97062941    -0.08100
C719        C  0.16559204  0.60330532  0.97042542     0.30700
C720        C  0.20757799  0.62467046  0.97874560    -0.20100
C721        C  0.20887120  0.67211494  0.98690250    -0.08200
C722        C  0.16629162  0.69713256  0.98821133     0.30700
F723        F  0.14725174  0.75409693  0.49427132    -0.18700
H724        H  0.09128825  0.69508925  0.98115902     0.19100
H725        H  0.23950227  0.60402558  0.97825509     0.19100
F726        F  0.16637995  0.55741657  0.96264507    -0.18700
C727        C  0.53250178  0.98073491  0.83762766    -0.20100
C728        C  0.48513562  0.98652184  0.84451127    -0.08100
C729        C  0.93702157  0.50211756  0.82853313     0.30700
C730        C  0.94195560  0.49128877  0.79966272    -0.20100
C731        C  0.51080852  0.95297338  0.79062646    -0.08200
C732        C  0.54531843  0.96327199  0.81145807     0.30700
F733        F  0.59165928  0.95486822  0.80713207    -0.18700
H734        H  0.55991191  0.98817620  0.85311448     0.19100
H735        H  0.91064210  0.48476170  0.78713517     0.19100
F736        F  0.89325871  0.50408829  0.83978058    -0.18700
C737        C  0.03054542  0.04106900  0.57862292    -0.20100
C738        C  0.49245381  0.02918241  0.56070943    -0.08100
C739        C  0.51249565  0.43924397  0.56922876     0.30700
C740        C  0.49461196  0.42565263  0.59577271    -0.20100
C741        C  0.49090350  0.02741135  0.62101636    -0.08200
C742        C  0.01871281  0.03275689  0.60735665     0.30700
F743        F  0.01640557  0.06982632  0.62502499    -0.18700
H744        H  0.03596142  0.07705729  0.57092975     0.19100
H745        H  0.48756944  0.38850324  0.59992675     0.19100
F746        F  0.52053626  0.40526287  0.55003141    -0.18700
C747        C  0.30006851  0.73067246  0.81762363    -0.20100
C748        C  0.25331323  0.72664551  0.80831964    -0.08100
C749        C  0.21685361  0.73508953  0.82763060     0.30700
C750        C  0.22743946  0.74752310  0.85577794    -0.20100
C751        C  0.27444124  0.75301148  0.86485016    -0.08200
C752        C  0.31067326  0.74475533  0.84514880     0.30700
F753        F  0.35647481  0.75371126  0.85156320    -0.18700
H754        H  0.32873825  0.72587128  0.80291366     0.19100
H755        H  0.19894854  0.75396580  0.87028536     0.19100
F756        F  0.17115279  0.73172839  0.81923044    -0.17700
C757        C  0.35813330  0.63367365  0.91684261    -0.20100
C758        C  0.40498130  0.63752419  0.92655353    -0.08100
C759        C  0.42768737  0.68175543  0.92412181     0.30700
C760        C  0.40296627  0.72167991  0.91485628    -0.20100
C761        C  0.35464943  0.71915391  0.90835122    -0.08200
C762        C  0.33291083  0.67421275  0.90794933     0.30700
F763        F  0.28638653  0.66976677  0.90173484    -0.18700
H764        H  0.34024397  0.59976776  0.91764248     0.19100
H765        H  0.42142551  0.75526768  0.91409878     0.19100
F766        F  0.47401103  0.68669245  0.93087006    -0.18700
C767        C  0.15558518  0.84412224  0.93376612    -0.20100
C768        C  0.14791056  0.88986226  0.92229080    -0.08100
C769        C  0.17577068  0.90496335  0.89880975     0.30700
C770        C  0.21257137  0.87701475  0.88913307    -0.20100
C771        C  0.22230712  0.83302345  0.90198478    -0.08200
C772        C  0.19227882  0.81592978  0.92367077     0.30700
F773        F  0.20159377  0.77399559  0.93709208    -0.18700
H774        H  0.13471828  0.83102055  0.95147910     0.19100
H775        H  0.23598940  0.89149057  0.87301003     0.19100
F776        F  0.16989346  0.94823049  0.88621591    -0.18700
N777        N  0.80505792  0.28640093  0.39506031    -0.02300
C778        C  0.84716737  0.27967352  0.40881418     0.00300
C779        C  0.85974861  0.31980238  0.42343706    -0.22600
C780        C  0.82401714  0.35138411  0.41950488    -0.22800
C781        C  0.79011945  0.32963708  0.40329922     0.00200
H782        H  0.89001180  0.32468762  0.43718638     0.14000
H783        H  0.82098852  0.38530944  0.42930204     0.14000
Zn784      Zn  0.02923271  0.06902747  0.47559435     1.49700
Zn785      Zn  0.57935253  0.52689590  0.42831229     1.49400
Zn786      Zn  0.01183858  0.46441204  0.47553050     1.49100
Zn787      Zn  0.93161533  0.49570892  0.43191934     1.49500
O788        O  0.98802592  0.51419783  0.45195505    -1.82900
O789        O  0.55066935  0.11181280  0.47203848    -0.73600
O790        O  0.61802399  0.46917709  0.42271167    -0.73400
O791        O  0.00484923  0.49544549  0.02132047    -0.72900
O792        O  0.58932518  0.07501668  0.43827597    -0.73600
O793        O  0.00952073  0.03718477  0.02061496    -0.73200
O794        O  0.60224203  0.41887364  0.45813694    -0.73800
O795        O  0.89948366  0.44218482  0.45535079    -0.73100
O796        O  0.54711374  0.53697602  0.39000414    -0.73900
O797        O  0.95978288  0.41835430  0.48247642    -0.73300
O798        O  0.95160486  0.48062045  0.39161311    -0.73800
O799        O  0.93262700  0.06732639  0.43542250    -0.73700
O800        O  0.98001040  0.11357835  0.46033317    -0.73500
C801        C  0.58792330  0.10539897  0.45786003     0.78300
C802        C  0.62506806  0.42973984  0.43546701     0.78800
C803        C  0.98515968  0.53081159  0.03274905     0.77800
C804        C  0.91684379  0.41490329  0.47488078     0.78200
C805        C  0.97784902  0.50843362  0.37670985     0.79300
C806        C  0.94471619  0.10824512  0.44379808     0.78300
N807        N  0.76871294  0.23632372  0.50886508    -0.02300
C808        C  0.76015977  0.20046159  0.49053214     0.00300
C809        C  0.79957705  0.19119975  0.47480237    -0.22600
C810        C  0.83303950  0.22323469  0.48230821    -0.22800
C811        C  0.81318651  0.25129708  0.50245723     0.00200
H812        H  0.80272055  0.16507323  0.45864596     0.14000
H813        H  0.86705553  0.22814869  0.47251901     0.14000
N814        N  0.48552115  0.48015196  0.14464521    -0.02300
C815        C  0.95733540  0.01661540  0.16549666     0.00300
C816        C  0.94996582  0.00118330  0.19300699    -0.22600
C817        C  0.45598469  0.42825867  0.17720753    -0.22800
C818        C  0.49386462  0.43949465  0.15996255     0.00200
H819        H  0.92573839  0.01603376  0.20764679     0.14000
H820        H  0.45267634  0.39877209  0.19211458     0.14000
Zn821      Zn  0.72977771  0.20063921  0.17607325     1.49700
Zn822      Zn  0.80068322  0.22677564  0.22258809     1.49400
Zn823      Zn  0.76200506  0.30683617  0.17990851     1.49100
Zn824      Zn  0.69991976  0.25866886  0.22830111     1.49500
O825        O  0.74848880  0.24910661  0.20145945    -1.82900
O826        O  0.78412246  0.15953949  0.16594759    -0.73600
O827        O  0.84468299  0.27920532  0.22564235    -0.73400
O828        O  0.76485092  0.28928924  0.13759395    -0.72900
O829        O  0.83439428  0.17661149  0.20059075    -0.73600
O830        O  0.71147010  0.23082581  0.13888043    -0.73200
O831        O  0.82162987  0.33954047  0.19807522    -0.73800
O832        O  0.65766003  0.30888634  0.21113675    -0.73100
O833        O  0.78477812  0.21512672  0.26439820    -0.73900
O834        O  0.70319488  0.34742853  0.17973999    -0.73300
O835        O  0.72807664  0.26891440  0.26746406    -0.73800
O836        O  0.66207026  0.19952135  0.23312024    -0.73700
O837        O  0.68081158  0.15878994  0.19501636    -0.73500
C838        C  0.82403213  0.15460667  0.17795882     0.78300
C839        C  0.85007724  0.32138600  0.21670599     0.78800
C840        C  0.73639614  0.26101027  0.12496520     0.77800
C841        C  0.66326035  0.34013323  0.19134477     0.78200
C842        C  0.75979356  0.24286749  0.27915893     0.79300
C843        C  0.65861968  0.16262940  0.21835005     0.78300
N844        N  0.50176595  0.47492343  0.26084822    -0.02300
C845        C  0.01907815  0.41330839  0.25645615     0.00300
C846        C  0.05709520  0.39009213  0.24574854    -0.22600
C847        C  0.50917634  0.01731245  0.20707990    -0.22800
C848        C  0.52375842  0.02036537  0.23496583     0.00200
H849        H  0.05729273  0.35481201  0.23740787     0.14000
H850        H  0.52535567  0.03374839  0.18852939     0.14000
C851        C  0.60667127  0.04053933  0.22835601    -0.20100
C852        C  0.56418499  0.05055220  0.24193646    -0.08100
C853        C  0.55646698  0.09617982  0.25179279     0.30700
C854        C  0.58876636  0.13237632  0.24538808    -0.20100
C855        C  0.62850966  0.12336636  0.22872283    -0.08200
C856        C  0.63847235  0.07662759  0.22153030     0.30700
F857        F  0.67769581  0.06614417  0.20667377    -0.18700
H858        H  0.61278965  0.00554709  0.22030789     0.19100
H859        H  0.58089758  0.16804593  0.25162271     0.19100
F860        F  0.51525891  0.10688681  0.26446354    -0.18700
C861        C  0.89958802  0.39544949  0.22175205    -0.20100
C862        C  0.89032102  0.34810270  0.22938851    -0.08100
C863        C  0.92022148  0.32577496  0.24996366     0.30700
C864        C  0.95993465  0.34896927  0.26048497    -0.20100
C865        C  0.97055040  0.39524286  0.25167246    -0.08200
C866        C  0.93904706  0.41893535  0.23299060     0.30700
F867        F  0.94745865  0.46405717  0.22447535    -0.18700
H868        H  0.87693608  0.41401493  0.20664456     0.19100
H869        H  0.98374430  0.32990802  0.27471033     0.19100
F870        F  0.91239990  0.28074035  0.25948140    -0.18700
C871        C  0.53722995  0.36474830  0.16979177    -0.20100
C872        C  0.53882894  0.41259214  0.16124740    -0.08100
C873        C  0.58317472  0.43514195  0.15903121     0.30700
C874        C  0.62417933  0.41123092  0.16803241    -0.20100
C875        C  0.62124644  0.36523306  0.17995614    -0.08200
C876        C  0.57756974  0.34155714  0.17948482     0.30700
F877        F  0.57360149  0.29583252  0.18862609    -0.18700
H878        H  0.50401590  0.34579138  0.17061751     0.19100
H879        H  0.65768898  0.42967537  0.16735226     0.19100
F880        F  0.58658165  0.48147863  0.15122041    -0.18700
C881        C  0.90712054  0.13507858  0.16698155    -0.20100
C882        C  0.85924883  0.12297309  0.16552429    -0.08100
C883        C  0.84624667  0.07913585  0.15424823     0.30700
C884        C  0.88092704  0.04586449  0.14821712    -0.20100
C885        C  0.92874565  0.05572319  0.15355813    -0.08200
C886        C  0.94159507  0.10180914  0.16118138     0.30700
F887        F  0.98703129  0.11259910  0.16730845    -0.18700
H888        H  0.91792628  0.16920960  0.17480794     0.19100
H889        H  0.87003191  0.01026739  0.14312357     0.19100
F890        F  0.80021360  0.06637140  0.15220266    -0.18700
C891        C  0.73668512  0.29830036  0.04653934    -0.20100
C892        C  0.73275407  0.25422429  0.03324598    -0.08100
C893        C  0.72668651  0.21348758  0.05082496     0.30700
C894        C  0.72605937  0.21688879  0.08037974    -0.20100
C895        C  0.73335623  0.26035651  0.09349916    -0.08200
C896        C  0.73827032  0.30131393  0.07631766     0.30700
F897        F  0.74485831  0.34409717  0.08822610    -0.18700
H898        H  0.74035278  0.33046455  0.03397165     0.19100
H899        H  0.72254391  0.18469021  0.09315354     0.19100
F900        F  0.72533353  0.16960062  0.03991184    -0.18700
C901        C  0.88149070  0.30154264  0.51394732    -0.20100
C902        C  0.83351512  0.29869430  0.50698818    -0.08100
C903        C  0.81136526  0.33856355  0.49463042     0.30700
C904        C  0.83810002  0.37826713  0.48636681    -0.20100
C905        C  0.88736343  0.37794559  0.48923811    -0.08200
C906        C  0.90835898  0.34061857  0.50517714     0.30700
F907        F  0.95543477  0.33973696  0.51037236    -0.18700
H908        H  0.89921922  0.27116938  0.52342808     0.19100
H909        H  0.82059654  0.40790276  0.47595958     0.19100
F910        F  0.76499212  0.33710721  0.48757734    -0.18700
C911        C  0.62984225  0.17723692  0.47627983    -0.20100
C912        C  0.63137398  0.13103370  0.46585696    -0.08100
C913        C  0.67465981  0.10746852  0.46550023     0.30700
C914        C  0.71536752  0.12956001  0.47528749    -0.20100
C915        C  0.71453178  0.17622999  0.48489118    -0.08200
C916        C  0.67123254  0.20003890  0.48537432     0.30700
F917        F  0.64070328  0.25414730  0.99487510    -0.18700
H918        H  0.59672411  0.19591721  0.47689665     0.19100
H919        H  0.74796391  0.10996136  0.47506610     0.19100
F920        F  0.67752634  0.06231915  0.45654760    -0.18700
C921        C  0.03659528  0.49601288  0.34022890    -0.20100
C922        C  0.98896105  0.49784473  0.34717847    -0.08100
C923        C  0.44505147  0.00882710  0.32627594     0.30700
C924        C  0.44787840  0.00528310  0.29670245    -0.20100
C925        C  0.01671808  0.47432055  0.29184045    -0.08200
C926        C  0.05054573  0.48346390  0.31330605     0.30700
F927        F  0.09737529  0.47833970  0.30896407    -0.18700
H928        H  0.06347674  0.50243405  0.35622873     0.19100
H929        H  0.41605192  0.00927981  0.28407648     0.19100
F930        F  0.40263458  0.01681404  0.33827063    -0.18700
C931        C  0.51874182  0.53981571  0.07490779    -0.20100
C932        C  0.98384888  0.53367746  0.06431536    -0.08100
C933        C  0.00962275  0.95356593  0.07744605     0.30700
C934        C  0.99952899  0.95126725  0.10660680    -0.20100
C935        C  0.98230108  0.54000262  0.12454722    -0.08200
C936        C  0.50875122  0.53370463  0.10400837     0.30700
F937        F  0.50564044  0.57229124  0.12040579    -0.18700
H938        H  0.52236945  0.57526745  0.06595967     0.19100
H939        H  0.98694434  0.91834412  0.11607050     0.19100
F940        F  0.00294195  0.91452221  0.06165800    -0.18700
C941        C  0.81698509  0.24707888  0.31937583    -0.20100
C942        C  0.77002940  0.24711608  0.31000909    -0.08100
C943        C  0.73434058  0.25548155  0.32982966     0.30700
C944        C  0.74581220  0.26482133  0.35829726    -0.20100
C945        C  0.79307440  0.26759872  0.36739224    -0.08200
C946        C  0.82862589  0.25808847  0.34741556     0.30700
F947        F  0.87492380  0.26304306  0.35407764    -0.18700
H948        H  0.84513758  0.24157810  0.30441408     0.19100
H949        H  0.71769535  0.27143973  0.37301815     0.19100
F950        F  0.68842825  0.25523493  0.32160903    -0.17700
C951        C  0.87390046  0.14858659  0.42134298    -0.20100
C952        C  0.91987905  0.15108255  0.43259544    -0.08100
C953        C  0.94361486  0.19493419  0.43135962     0.30700
C954        C  0.92078346  0.23546652  0.42113539    -0.20100
C955        C  0.87328086  0.23409016  0.41246817    -0.08200
C956        C  0.85054085  0.18969234  0.41158707     0.30700
F957        F  0.80461538  0.18620195  0.40374642    -0.18700
H958        H  0.85519343  0.11512669  0.42129218     0.19100
H959        H  0.94020446  0.26849584  0.42098176     0.19100
F960        F  0.98925859  0.19889392  0.43986383    -0.18700
C961        C  0.67362772  0.35451383  0.43710287    -0.20100
C962        C  0.66174024  0.39783275  0.42359355    -0.08100
C963        C  0.68766940  0.41218091  0.39917582     0.30700
C964        C  0.72697437  0.38671304  0.39062396    -0.20100
C965        C  0.74063776  0.34549888  0.40533294    -0.08200
C966        C  0.71247793  0.32839646  0.42791560     0.30700
F967        F  0.72511471  0.28854351  0.44263641    -0.18700
H968        H  0.65428124  0.34190967  0.45556575     0.19100
H969        H  0.74857535  0.40085684  0.37349977     0.19100
F970        F  0.67699264  0.45245944  0.38430633    -0.18700
N971        N  0.80135257  0.28215896  0.89194404    -0.02300
C972        C  0.84434206  0.27551635  0.90491936     0.00300
C973        C  0.85835135  0.31663498  0.91819242    -0.22600
C974        C  0.82320472  0.34869873  0.91412813    -0.22800
C975        C  0.78794656  0.32664265  0.89914235     0.00200
H976        H  0.88903106  0.32210525  0.93151692     0.14000
H977        H  0.82170089  0.38338211  0.92315784     0.14000
Zn978      Zn  0.02024000  0.06226027  0.98068091     1.49700
Zn979      Zn  0.57085582  0.52450601  0.92192663     1.49400
Zn980      Zn  0.99473655  0.47127198  0.98109176     1.49100
Zn981      Zn  0.92397288  0.51032567  0.93265237     1.49500
O982        O  0.98105998  0.52194627  0.95471614    -1.82900
O983        O  0.52716125  0.11000374  0.97456519    -0.73600
O984        O  0.61455363  0.46994503  0.91661794    -0.73400
O985        O  0.02134870  0.48970770  0.51505372    -0.72900
O986        O  0.56581738  0.08797737  0.93610146    -0.73600
O987        O  0.02108172  0.04646572  0.51644021    -0.73200
O988        O  0.60204303  0.42083032  0.95325038    -0.73800
O989        O  0.88517003  0.45688387  0.95217014    -0.73100
O990        O  0.53878526  0.53348904  0.88385962    -0.73900
O991        O  0.93735661  0.43254238  0.98477939    -0.73300
O992        O  0.94190740  0.49687105  0.89141703    -0.73800
O993        O  0.92963577  0.06458141  0.93466043    -0.73700
O994        O  0.97211144  0.10888190  0.96384316    -0.73500
C995        C  0.56315014  0.11203768  0.95866922     0.78300
C996        C  0.62415038  0.43182978  0.93029147     0.78800
C997        C  0.99166632  0.51541606  0.52790453     0.77800
C998        C  0.89720019  0.42927431  0.97295048     0.78200
C999        C  0.97439330  0.51711247  0.87674188     0.79300
C1000       C  0.93949464  0.10460103  0.94510761     0.78300
N1001       N  0.74417410  0.24981270  0.00334462    -0.02300
C1002       C  0.73253712  0.21261104  0.98656865     0.00300
C1003       C  0.76715044  0.20491192  0.96678247    -0.22600
C1004       C  0.80062906  0.23857507  0.97072306    -0.22800
C1005       C  0.78530817  0.26637532  0.99218723     0.00200
H1006       H  0.76714806  0.17854444  0.95054003     0.14000
H1007       H  0.83252119  0.24359301  0.95894708     0.14000
N1008       N  0.46315387  0.44357469  0.64308330    -0.02300
C1009       C  0.95007661  0.99379581  0.65608135     0.00300
C1010       C  0.93131441  0.96347358  0.67633405    -0.22600
C1011       C  0.42822601  0.38466910  0.66867407    -0.22800
C1012       C  0.46905016  0.39912660  0.65484464     0.00200
H1013       H  0.89956026  0.96887329  0.68832124     0.14000
H1014       H  0.42243972  0.35288032  0.68141368     0.14000
Zn1015     Zn  0.72497350  0.17297814  0.67809313     1.49700
Zn1016     Zn  0.78948933  0.20597112  0.72704057     1.49400
Zn1017     Zn  0.74167839  0.28174959  0.68555088     1.49100
Zn1018     Zn  0.68180212  0.22274910  0.73012464     1.49500
O1019       O  0.73460062  0.22123804  0.70503684    -1.82900
O1020       O  0.78614447  0.14075644  0.67018575    -0.73600
O1021       O  0.82524855  0.26506630  0.73315566    -0.73400
O1022       O  0.75282507  0.26859042  0.64342738    -0.72900
O1023       O  0.83233966  0.15933327  0.70652005    -0.73600
O1024       O  0.70807101  0.20357365  0.64032238    -0.73200
O1025       O  0.79196230  0.32211993  0.70694636    -0.73800
O1026       O  0.63406422  0.26914848  0.71243228    -0.73100
O1027       O  0.77079263  0.19024861  0.76761784    -0.73900
O1028       O  0.67856946  0.31406475  0.68375182    -0.73300
O1029       O  0.70814516  0.23718730  0.76965397    -0.73800
O1030       O  0.65197479  0.15778066  0.73298019    -0.73700
O1031       O  0.67990497  0.12305389  0.69464360    -0.73500
C1032       C  0.82564087  0.13808966  0.68305980     0.78300
C1033       C  0.82222670  0.30839040  0.72578346     0.78800
C1034       C  0.73060864  0.23803633  0.62855473     0.77800
C1035       C  0.63844218  0.30261319  0.69378899     0.78200
C1036       C  0.74355799  0.21684945  0.78167273     0.79300
C1037       C  0.65535494  0.12178877  0.71735782     0.78300
N1038       N  0.49204484  0.49141879  0.75230418    -0.02300
C1039       C  0.97600223  0.42262323  0.75337907     0.00300
C1040       C  0.00574416  0.40034930  0.73513770    -0.22600
C1041       C  0.58456584  0.90144435  0.74032318    -0.22800
C1042       C  0.56859431  0.94247186  0.75224230     0.00200
H1043       H  0.00107307  0.36570191  0.72624402     0.14000
H1044       H  0.61754490  0.89601621  0.72999763     0.14000
C1045       C  0.63721661  0.99173825  0.73458270    -0.20100
C1046       C  0.59199790  0.98999471  0.74688101    -0.08100
C1047       C  0.56837486  0.03348036  0.75004249     0.30700
C1048       C  0.58904565  0.07622879  0.74055664    -0.20100
C1049       C  0.63278529  0.07676892  0.72684908    -0.08200
C1050       C  0.65675963  0.03402282  0.72414691     0.30700
F1051       F  0.69993077  0.03312966  0.71199425    -0.18700
H1052       H  0.65792789  0.96025479  0.73231745     0.19100
H1053       H  0.57010976  0.10891981  0.74315998     0.19100
F1054       F  0.52438057  0.03522135  0.76081281    -0.18700
C1055       C  0.85350450  0.39103692  0.73392289    -0.20100
C1056       C  0.85523496  0.34215843  0.73985910    -0.08100
C1057       C  0.89025256  0.32534702  0.75913192     0.30700
C1058       C  0.92638020  0.35523272  0.76819642    -0.20100
C1059       C  0.92861817  0.40233281  0.75848831    -0.08200
C1060       C  0.88995181  0.42104366  0.74322677     0.30700
F1061       F  0.89055808  0.46694810  0.73421905    -0.18700
H1062       H  0.82560901  0.40545875  0.72059488     0.19100
H1063       H  0.95568273  0.34011213  0.78011728     0.19100
F1064       F  0.89204416  0.27921728  0.76767950    -0.18700
C1065       C  0.51289032  0.32520512  0.66882633    -0.20100
C1066       C  0.51464123  0.37257006  0.65871479    -0.08100
C1067       C  0.55919983  0.39502434  0.65779939     0.30700
C1068       C  0.59917802  0.37226479  0.66926530    -0.20100
C1069       C  0.59591876  0.32681689  0.68195298    -0.08200
C1070       C  0.55246591  0.30296240  0.68071967     0.30700
F1071       F  0.54812433  0.25774155  0.69070949    -0.18700
H1072       H  0.48022600  0.30537976  0.66859130     0.19100
H1073       H  0.63261904  0.39086741  0.66891129     0.19100
F1074       F  0.56437353  0.43979282  0.64741348    -0.18700
C1075       C  0.90831782  0.10642222  0.68371696    -0.20100
C1076       C  0.86374336  0.10903613  0.67056627    -0.08100
C1077       C  0.85547812  0.08160849  0.64618511     0.30700
C1078       C  0.88846223  0.04803292  0.63791949    -0.20100
C1079       C  0.93067307  0.04195299  0.65315279    -0.08200
C1080       C  0.94159708  0.07360307  0.67490454     0.30700
F1081       F  0.98207853  0.06838215  0.69011035    -0.18700
H1082       H  0.91650613  0.12777347  0.70195125     0.19100
H1083       H  0.87893599  0.02353917  0.62142739     0.19100
F1084       F  0.81414677  0.08438486  0.63154050    -0.18700
C1085       C  0.74974951  0.28155978  0.55207731    -0.20100
C1086       C  0.74984260  0.23862606  0.53746211    -0.08100
C1087       C  0.73888848  0.19668415  0.55305786     0.30700
C1088       C  0.72991194  0.19777694  0.58216300    -0.20100
C1089       C  0.73317363  0.24007670  0.59700482    -0.08200
C1090       C  0.74211294  0.28233582  0.58157100     0.30700
F1091       F  0.74435411  0.32421905  0.59500915    -0.18700
H1092       H  0.75739471  0.31449064  0.54098429     0.19100
H1093       H  0.72349829  0.16458697  0.59348600     0.19100
F1094       F  0.74100920  0.15368091  0.54105484    -0.18700
C1095       C  0.85678662  0.31133297  0.00347856    -0.20100
C1096       C  0.80866188  0.31199545  0.99712654    -0.08100
C1097       C  0.78830358  0.35387506  0.98615930     0.30700
C1098       C  0.81665849  0.39329874  0.97961248    -0.20100
C1099       C  0.86565703  0.39097060  0.98349235    -0.08200
C1100       C  0.88515816  0.35018759  0.99674926     0.30700
F1101       F  0.93231324  0.34591496  0.00092943    -0.18700
H1102       H  0.87318138  0.27894812  0.01118256     0.19100
H1103       H  0.80071301  0.42452080  0.96998538     0.19100
F1104       F  0.74180704  0.35516417  0.97942560    -0.18700
C1105       C  0.60230068  0.18427036  0.97886508    -0.20100
C1106       C  0.60504385  0.13838066  0.96814931    -0.08100
C1107       C  0.64862136  0.11544601  0.96810618     0.30700
C1108       C  0.68902406  0.13869694  0.97716624    -0.20100
C1109       C  0.68745522  0.18596252  0.98555424    -0.08200
C1110       C  0.64349737  0.20836367  0.98716803     0.30700
F1111       F  0.66914974  0.24569425  0.49343201    -0.18700
H1112       H  0.56868525  0.20200822  0.97966706     0.19100
H1113       H  0.72225925  0.12024172  0.97632375     0.19100
F1114       F  0.65216308  0.07021993  0.95934094    -0.18700
C1115       C  0.02161896  0.50840218  0.83310892    -0.20100
C1116       C  0.97707301  0.51023570  0.84560254    -0.08100
C1117       C  0.45018174  0.97457131  0.82455070     0.30700
C1118       C  0.46303730  0.95859962  0.79760154    -0.20100
C1119       C  0.98684119  0.48697395  0.78748923    -0.08200
C1120       C  0.02670710  0.49601602  0.80478903     0.30700
F1121       F  0.07103317  0.48903063  0.79533861    -0.18700
H1122       H  0.05312373  0.51360758  0.84585400     0.19100
H1123       H  0.43566642  0.95067819  0.78233693     0.19100
F1124       F  0.40394642  0.97909353  0.83090134    -0.18700
C1125       C  0.51013631  0.52110958  0.58262590    -0.20100
C1126       C  0.98502163  0.50732797  0.55876487    -0.08100
C1127       C  0.02800666  0.95694984  0.57055944     0.30700
C1128       C  0.01497566  0.94887495  0.59881242    -0.20100
C1129       C  0.96444330  0.48885663  0.61687426    -0.08200
C1130       C  0.49370281  0.50727046  0.60975978     0.30700
F1131       F  0.48784639  0.54087673  0.62937198    -0.18700
H1132       H  0.51570739  0.55829984  0.57772082     0.19100
H1133       H  0.00719451  0.91295451  0.60573850     0.19100
F1134       F  0.03049525  0.91947141  0.55314658    -0.18700
C1135       C  0.80403370  0.22716538  0.81962282    -0.20100
C1136       C  0.75632489  0.22737932  0.81163872    -0.08100
C1137       C  0.72304225  0.24243840  0.83144965     0.30700
C1138       C  0.73760383  0.25746928  0.85846860    -0.20100
C1139       C  0.78571507  0.25954153  0.86597834    -0.08200
C1140       C  0.81876800  0.24387624  0.84598426     0.30700
F1141       F  0.86576599  0.24772475  0.85079680    -0.18700
H1142       H  0.83062675  0.21685863  0.80462773     0.19100
H1143       H  0.71113490  0.26856081  0.87319955     0.19100
F1144       F  0.67654971  0.24335590  0.82458965    -0.17700
C1145       C  0.86922647  0.14458648  0.92183508    -0.20100
C1146       C  0.91487837  0.14741016  0.93363920    -0.08100
C1147       C  0.93869173  0.19102238  0.93206845     0.30700
C1148       C  0.91683010  0.23089378  0.92003629    -0.20100
C1149       C  0.86978025  0.22944092  0.91019717    -0.08200
C1150       C  0.84662851  0.18507860  0.91048792     0.30700
F1151       F  0.80145432  0.18082773  0.90136744    -0.18700
H1152       H  0.85043106  0.11116050  0.92211873     0.19100
H1153       H  0.93682483  0.26354230  0.91927861     0.19100
F1154       F  0.98367119  0.19518252  0.94175346    -0.18700
C1155       C  0.66932512  0.35464404  0.92977870    -0.20100
C1156       C  0.66213995  0.40087317  0.91891981    -0.08100
C1157       C  0.69252601  0.41779634  0.89714138     0.30700
C1158       C  0.73070885  0.39077730  0.88834697    -0.20100
C1159       C  0.73935427  0.34584522  0.90034959    -0.08200
C1160       C  0.70735593  0.32737273  0.92054313     0.30700
F1161       F  0.71522854  0.28453408  0.93314938    -0.18700
H1162       H  0.64652438  0.34014977  0.94619343     0.19100
H1163       H  0.75550258  0.40631630  0.87337047     0.19100
F1164       F  0.68735271  0.46174463  0.88536837    -0.18700
N1165       N  0.73196426  0.76090629  0.40277715    -0.02300
C1166       C  0.77020095  0.74484653  0.41742676     0.00300
C1167       C  0.77026002  0.76097587  0.44466631    -0.22600
C1168       C  0.73004917  0.78610012  0.44784952    -0.22800
C1169       C  0.70693303  0.78535968  0.42199922     0.00200
H1170       H  0.79700943  0.75467074  0.46038740     0.14000
H1171       H  0.71939193  0.80437481  0.46668917     0.14000
Zn1172     Zn  0.97702912  0.56854381  0.47394135     1.49700
Zn1173     Zn  0.54148024  0.02680129  0.42534117     1.49400
Zn1174     Zn  0.05465145  0.96192483  0.47347338     1.49100
Zn1175     Zn  0.96943043  0.00528378  0.43655278     1.49500
O1176       O  0.03281528  0.01565626  0.45107541    -1.82900
O1177       O  0.59398849  0.59822966  0.48340328    -0.73600
O1178       O  0.57387655  0.96543262  0.42315836    -0.73400
O1179       O  0.04991027  0.96940763  0.01959522    -0.72900
O1180       O  0.62660104  0.57642312  0.44286904    -0.73600
O1181       O  0.96650048  0.56386057  0.01749970    -0.73200
O1182       O  0.55157541  0.92546656  0.46193360    -0.73800
O1183       O  0.93737420  0.95008929  0.45913340    -0.73100
O1184       O  0.51792047  0.03611944  0.38561310    -0.73900
O1185       O  0.00078945  0.91598328  0.47838123    -0.73300
O1186       O  0.97339929  0.99330276  0.39448825    -0.73800
O1187       O  0.88981983  0.55230190  0.42602435    -0.73700
O1188       O  0.92546677  0.60533829  0.45330522    -0.73500
C1189       C  0.62848755  0.59882596  0.46621814     0.78300
C1190       C  0.57478119  0.92830550  0.43877865     0.78800
C1191       C  0.02838200  0.00137083  0.03325223     0.77800
C1192       C  0.95640920  0.91671507  0.47408854     0.78200
C1193       C  0.99868415  0.01482430  0.37582571     0.79300
C1194       C  0.89454985  0.59443824  0.43455756     0.78300
N1195       N  0.81052873  0.73360423  0.51403438    -0.02300
C1196       C  0.80375832  0.69173773  0.50038623     0.00300
C1197       C  0.84529374  0.67828152  0.48794405    -0.22600
C1198       C  0.87721542  0.71383205  0.49162559    -0.22800
C1199       C  0.85506910  0.74809111  0.50687898     0.00200
H1200       H  0.85123870  0.64736002  0.47578824     0.14000
H1201       H  0.91170402  0.71621011  0.48205486     0.14000
N1202       N  0.41561006  0.97166555  0.13974857    -0.02300
C1203       C  0.96310160  0.57294402  0.17290266     0.00300
C1204       C  0.97718590  0.56516796  0.20072348    -0.22600
C1205       C  0.38061688  0.90794030  0.16038619    -0.22800
C1206       C  0.42290724  0.92708231  0.15115803     0.00200
H1207       H  0.96397109  0.58214843  0.21942509     0.14000
H1208       H  0.37430489  0.87394363  0.17038331     0.14000
Zn1209     Zn  0.70242445  0.71768435  0.17933043     1.49700
Zn1210     Zn  0.76376038  0.76861194  0.22561259     1.49400
Zn1211     Zn  0.70503547  0.82989528  0.18125913     1.49100
Zn1212     Zn  0.65030960  0.76799912  0.22832287     1.49500
O1213       O  0.70538764  0.77137317  0.20391553    -1.82900
O1214       O  0.76540976  0.68610792  0.17642855    -0.73600
O1215       O  0.79512574  0.83291608  0.22769946    -0.73400
O1216       O  0.72013936  0.81300749  0.13997104    -0.72900
O1217       O  0.81012064  0.72178036  0.20847929    -0.73600
O1218       O  0.68905541  0.74034548  0.13941037    -0.73200
O1219       O  0.75017348  0.87877705  0.19980361    -0.73800
O1220       O  0.60021192  0.81379213  0.21248155    -0.73100
O1221       O  0.74698391  0.75426813  0.26659310    -0.73900
O1222       O  0.63866003  0.85606531  0.17944341    -0.73300
O1223       O  0.67190941  0.77725509  0.26917804    -0.73800
O1224       O  0.62095413  0.70216899  0.22937623    -0.73700
O1225       O  0.65723029  0.66711352  0.19410248    -0.73500
C1226       C  0.80496899  0.69167763  0.18878778     0.78300
C1227       C  0.78408762  0.87364922  0.21779530     0.78800
C1228       C  0.70688958  0.77630485  0.12646317     0.77800
C1229       C  0.60066869  0.84515904  0.19237679     0.78200
C1230       C  0.71077587  0.76489055  0.28108231     0.79300
C1231       C  0.62829513  0.66572391  0.21471983     0.78300
N1232       N  0.49354460  0.99678930  0.25274477    -0.02300
C1233       C  0.88209216  0.04313846  0.25296182     0.00300
C1234       C  0.86661934  0.08259428  0.23771097    -0.22600
C1235       C  0.55150821  0.44529388  0.22891109    -0.22800
C1236       C  0.53804363  0.48529697  0.24277322     0.00200
H1237       H  0.83402473  0.08638471  0.22586360     0.14000
H1238       H  0.57998955  0.44197211  0.21429567     0.14000
C1239       C  0.60729875  0.53444073  0.22678027    -0.20100
C1240       C  0.56159838  0.53246373  0.23820021    -0.08100
C1241       C  0.53821931  0.57544525  0.24261894     0.30700
C1242       C  0.55991537  0.61884788  0.23517670    -0.20100
C1243       C  0.60477594  0.62020118  0.22262773    -0.08200
C1244       C  0.62833726  0.57736730  0.21879867     0.30700
F1245       F  0.67246261  0.57686155  0.20792382    -0.18700
H1246       H  0.62729044  0.50259446  0.22379768     0.19100
H1247       H  0.54111264  0.65138201  0.23853052     0.19100
F1248       F  0.49367678  0.57563636  0.25280317    -0.18700
C1249       C  0.78437258  0.95642945  0.23542636    -0.20100
C1250       C  0.80965140  0.91574590  0.22891001    -0.08100
C1251       C  0.85827091  0.91467150  0.23545241     0.30700
C1252       C  0.88129075  0.95472772  0.24634426    -0.20100
C1253       C  0.85652352  0.99672936  0.25074054    -0.08200
C1254       C  0.80715854  0.99599834  0.24667336     0.30700
F1255       F  0.78079791  0.03410386  0.25302807    -0.18700
H1256       H  0.74662436  0.95749713  0.23199499     0.19100
H1257       H  0.91897838  0.95380250  0.24971859     0.19100
F1258       F  0.88402360  0.87576192  0.22996398    -0.18700
C1259       C  0.47155437  0.86034940  0.17272607    -0.20100
C1260       C  0.47015060  0.90542546  0.15909564    -0.08100
C1261       C  0.51332581  0.93048736  0.15667807     0.30700
C1262       C  0.55534636  0.91124998  0.16789640    -0.20100
C1263       C  0.55568357  0.86709757  0.18231605    -0.08200
C1264       C  0.51309600  0.84190582  0.18452507     0.30700
F1265       F  0.51161236  0.79841985  0.19734168    -0.18700
H1266       H  0.44039411  0.83862890  0.17483431     0.19100
H1267       H  0.58772177  0.93137541  0.16563703     0.19100
F1268       F  0.51530459  0.97440916  0.14463597    -0.18700
C1269       C  0.89158537  0.68093813  0.18250013    -0.20100
C1270       C  0.84569151  0.66298300  0.17969121    -0.08100
C1271       C  0.83947993  0.61752610  0.16834913     0.30700
C1272       C  0.87868020  0.58960148  0.16209892    -0.20100
C1273       C  0.92453370  0.60669233  0.16669739    -0.08200
C1274       C  0.93049220  0.65332025  0.17595335     0.30700
F1275       F  0.97434887  0.67049291  0.18129430    -0.18700
H1276       H  0.89746724  0.71597677  0.19066090     0.19100
H1277       H  0.87319961  0.55324318  0.15609635     0.19100
F1278       F  0.79572064  0.59856137  0.16547782    -0.18700
C1279       C  0.73769485  0.80648158  0.04926641    -0.20100
C1280       C  0.74754834  0.76128883  0.03894750    -0.08100
C1281       C  0.73888165  0.72167524  0.05696918     0.30700
C1282       C  0.72271627  0.72734620  0.08457219    -0.20100
C1283       C  0.71586367  0.77249068  0.09551420    -0.08200
C1284       C  0.72218339  0.81217592  0.07731325     0.30700
F1285       F  0.71422776  0.85635390  0.08672346    -0.18700
H1286       H  0.74334374  0.83760148  0.03603130     0.19100
H1287       H  0.71857271  0.69603499  0.09806392     0.19100
F1288       F  0.74976450  0.67737618  0.04893612    -0.18700
C1289       C  0.92233613  0.80294079  0.51429997    -0.20100
C1290       C  0.87489518  0.79710116  0.50658084    -0.08100
C1291       C  0.85270740  0.83420898  0.49113482     0.30700
C1292       C  0.87870268  0.87379015  0.48138730    -0.20100
C1293       C  0.92728018  0.87755837  0.48706291    -0.08200
C1294       C  0.94816795  0.84257242  0.50500484     0.30700
F1295       F  0.99429467  0.84515464  0.51262933    -0.18700
H1296       H  0.94041713  0.77496140  0.52603374     0.19100
H1297       H  0.86109156  0.90057745  0.46844084     0.19100
F1298       F  0.80653591  0.83125535  0.48403736    -0.18700
C1299       C  0.67172488  0.66844270  0.48668815    -0.20100
C1300       C  0.67265180  0.62352359  0.47458804    -0.08100
C1301       C  0.71597046  0.60033432  0.47283652     0.30700
C1302       C  0.75729230  0.62166244  0.48282451    -0.20100
C1303       C  0.75732893  0.66766258  0.49389621    -0.08200
C1304       C  0.71350304  0.69073666  0.49576924     0.30700
F1305       F  0.67172558  0.74945636  0.99916277    -0.18700
H1306       H  0.63857388  0.68671675  0.48862844     0.19100
H1307       H  0.78940563  0.60159234  0.48162694     0.19100
F1308       F  0.71821064  0.55608765  0.46238871    -0.18700
C1309       C  0.01151995  0.01964461  0.32267022    -0.20100
C1310       C  0.98074542  0.01767278  0.34593982    -0.08100
C1311       C  0.46324504  0.50514970  0.33485076     0.30700
C1312       C  0.46143274  0.49591797  0.30554576    -0.20100
C1313       C  0.94550374  0.03211399  0.28951472    -0.08200
C1314       C  0.99411903  0.02596736  0.29470430     0.30700
F1315       F  0.02492374  0.02608308  0.27289258    -0.18700
H1316       H  0.04912102  0.01649495  0.32615605     0.19100
H1317       H  0.42759959  0.49223286  0.29504877     0.19100
F1318       F  0.42243541  0.50991482  0.34928094    -0.18700
C1319       C  0.45049088  0.04308087  0.07366392    -0.20100
C1320       C  0.02373582  0.99662135  0.06447355    -0.08100
C1321       C  0.98317512  0.49255818  0.08176358     0.30700
C1322       C  0.98166846  0.49585232  0.11143635    -0.20100
C1323       C  0.00388247  0.99161519  0.12329040    -0.08200
C1324       C  0.43615757  0.03249062  0.10163869     0.30700
F1325       F  0.42365430  0.06880703  0.11801602    -0.18700
H1326       H  0.45004886  0.07945090  0.06594156     0.19100
H1327       H  0.98000387  0.46363925  0.12420048     0.19100
F1328       F  0.98313717  0.44907145  0.07018527    -0.18700
C1329       C  0.75869061  0.77407243  0.32508855    -0.20100
C1330       C  0.71498271  0.76373976  0.31249501    -0.08100
C1331       C  0.67641701  0.75262435  0.33014460     0.30700
C1332       C  0.68202322  0.75134020  0.35985884    -0.20100
C1333       C  0.72595343  0.76133574  0.37230457    -0.08200
C1334       C  0.76407452  0.77345661  0.35460200     0.30700
F1335       F  0.80620796  0.78648758  0.36586726    -0.18700
H1336       H  0.78866885  0.78367307  0.31201818     0.19100
H1337       H  0.65227798  0.74216633  0.37318903     0.19100
F1338       F  0.63378299  0.74177700  0.31870522    -0.17700
C1339       C  0.81687146  0.62285634  0.41508405    -0.20100
C1340       C  0.86422627  0.63201149  0.42211220    -0.08100
C1341       C  0.88162148  0.67850393  0.41931980     0.30700
C1342       C  0.85099031  0.71569520  0.41314978    -0.20100
C1343       C  0.80268982  0.70720690  0.40945991    -0.08200
C1344       C  0.78610421  0.66034171  0.40887784     0.30700
F1345       F  0.73932123  0.65126539  0.40607411    -0.18700
H1346       H  0.80283874  0.58723416  0.41679989     0.19100
H1347       H  0.86419406  0.75163218  0.41414381     0.19100
F1348       F  0.92763302  0.68842922  0.42465814    -0.18700
C1349       C  0.59675201  0.84317674  0.44245048    -0.20100
C1350       C  0.60314566  0.88788318  0.42949222    -0.08100
C1351       C  0.63733840  0.89345953  0.40794283     0.30700
C1352       C  0.66785510  0.85644904  0.40207314    -0.20100
C1353       C  0.66435114  0.81355973  0.41730713    -0.08200
C1354       C  0.62691084  0.80621251  0.43629495     0.30700
F1355       F  0.62285687  0.76473154  0.45122397    -0.18700
H1356       H  0.56982799  0.83736681  0.45836399     0.19100
H1357       H  0.69704989  0.86289044  0.38777425     0.19100
F1358       F  0.64394030  0.93562101  0.39412200    -0.18700
N1359       N  0.75615454  0.79345095  0.89804826    -0.02300
C1360       C  0.79593067  0.78165472  0.91283455     0.00300
C1361       C  0.80934040  0.81732053  0.93076992    -0.22600
C1362       C  0.77627733  0.85184360  0.92768609    -0.22800
C1363       C  0.74360046  0.83599825  0.90829092     0.00200
H1364       H  0.83928400  0.81752783  0.94512458     0.14000
H1365       H  0.77435341  0.88404095  0.93952496     0.14000
Zn1366     Zn  0.97832493  0.57895807  0.97568488     1.49700
Zn1367     Zn  0.52702741  0.03300818  0.92227772     1.49400
Zn1368     Zn  0.03840765  0.95149525  0.97828047     1.49100
Zn1369     Zn  0.96272035  0.00149796  0.93767464     1.49500
O1370       O  0.02302460  0.00844433  0.95680218    -1.82900
O1371       O  0.57381680  0.60138145  0.97433561    -0.73600
O1372       O  0.57180539  0.98000308  0.91952204    -0.73400
O1373       O  0.06464116  0.98123202  0.51477549    -0.72900
O1374       O  0.61211612  0.57924183  0.93591728    -0.73600
O1375       O  0.96576186  0.54543618  0.51440142    -0.73200
O1376       O  0.56073196  0.93493358  0.95810386    -0.73800
O1377       O  0.92245219  0.95235068  0.96013671    -0.73100
O1378       O  0.49910609  0.03660605  0.88307854    -0.73900
O1379       O  0.97906194  0.91368152  0.98365438    -0.73300
O1380       O  0.97638766  0.98757236  0.89618926    -0.73800
O1381       O  0.88766341  0.57120506  0.92866620    -0.73700
O1382       O  0.93011641  0.61988150  0.95561407    -0.73500
C1383       C  0.60924593  0.60430831  0.95812175     0.78300
C1384       C  0.58228222  0.94398593  0.93481150     0.78800
C1385       C  0.04145477  0.01141816  0.52885248     0.77800
C1386       C  0.93560129  0.91980775  0.97784456     0.78200
C1387       C  0.00662805  0.00974507  0.88068765     0.79300
C1388       C  0.89731262  0.61245718  0.93741719     0.78300
N1389       N  0.77212051  0.75551635  0.01232041    -0.02300
C1390       C  0.76897144  0.71626596  0.99584842     0.00300
C1391       C  0.81185853  0.70758251  0.98346872    -0.22600
C1392       C  0.84158525  0.74295742  0.99067580    -0.22800
C1393       C  0.81679476  0.77223610  0.00796394     0.00200
H1394       H  0.82091717  0.67909042  0.97008426     0.14000
H1395       H  0.87708276  0.74809946  0.98292496     0.14000
N1396       N  0.49240008  0.02507025  0.65178190    -0.02300
C1397       C  0.90506054  0.48924255  0.65501470     0.00300
C1398       C  0.88673162  0.45376550  0.67216434    -0.22600
C1399       C  0.50362882  0.99670183  0.69633057    -0.22800
C1400       C  0.51430452  0.99144801  0.66827293     0.00200
H1401       H  0.85384630  0.45483410  0.68351100     0.14000
H1402       H  0.51442582  0.97387585  0.71357901     0.14000
Zn1403     Zn  0.71629297  0.71218858  0.67556661     1.49700
Zn1404     Zn  0.77953336  0.73193972  0.72827850     1.49400
Zn1405     Zn  0.75271008  0.81393238  0.68341351     1.49100
Zn1406     Zn  0.67478306  0.76755058  0.72417982     1.49500
O1407       O  0.73159077  0.75711068  0.70342928    -1.82900
O1408       O  0.76892181  0.66728289  0.67202496    -0.73600
O1409       O  0.82860466  0.78200689  0.73361445    -0.73400
O1410       O  0.76968688  0.79561372  0.64291803    -0.72900
O1411       O  0.81161822  0.67300511  0.71146910    -0.73600
O1412       O  0.71190810  0.74296962  0.63708742    -0.73200
O1413       O  0.80817367  0.84363935  0.70605604    -0.73800
O1414       O  0.64062625  0.82104738  0.70268552    -0.73100
O1415       O  0.75230051  0.72556566  0.76799255    -0.73900
O1416       O  0.69698922  0.85779027  0.67765425    -0.73300
O1417       O  0.69333608  0.77772582  0.76564470    -0.73800
O1418       O  0.63398246  0.70851716  0.72536194    -0.73700
O1419       O  0.66114169  0.67196959  0.68769536    -0.73500
C1420       C  0.80331620  0.65376846  0.68750654     0.78300
C1421       C  0.83507559  0.82457382  0.72510663     0.78800
C1422       C  0.74517385  0.76863160  0.62698935     0.77800
C1423       C  0.65398217  0.85353960  0.68500806     0.78200
C1424       C  0.72359139  0.75343525  0.78001512     0.79300
C1425       C  0.63411324  0.67311914  0.70917338     0.78300
N1426       N  0.52478115  0.93468228  0.76342829    -0.02300
C1427       C  0.00388082  0.92185276  0.75562273     0.00300
C1428       C  0.03574515  0.90266903  0.73725647    -0.22600
C1429       C  0.53091053  0.46699085  0.71372966    -0.22800
C1430       C  0.52602406  0.50281435  0.73287395     0.00200
H1431       H  0.03351075  0.86834357  0.72773891     0.14000
H1432       H  0.55462693  0.46622685  0.69601368     0.14000
C1433       C  0.59900742  0.54505739  0.71796991    -0.20100
C1434       C  0.55450402  0.54719088  0.73069655    -0.08100
C1435       C  0.53673944  0.59176450  0.73772500     0.30700
C1436       C  0.56259450  0.63313691  0.73098494    -0.20100
C1437       C  0.60573333  0.63053405  0.71654729    -0.08200
C1438       C  0.62391586  0.58585212  0.71060074     0.30700
F1439       F  0.66654319  0.58129627  0.69811398    -0.18700
H1440       H  0.61465206  0.51143291  0.71317424     0.19100
H1441       H  0.54834783  0.66717956  0.73630265     0.19100
F1442       F  0.49380863  0.59560183  0.74985558    -0.18700
C1443       C  0.87718318  0.90110356  0.73591441    -0.20100
C1444       C  0.87501834  0.85146652  0.73795687    -0.08100
C1445       C  0.91196113  0.82742509  0.75237008     0.30700
C1446       C  0.95172345  0.85202965  0.76177137    -0.20100
C1447       C  0.95584196  0.90102467  0.75728026    -0.08200
C1448       C  0.91707051  0.92577656  0.74567277     0.30700
F1449       F  0.91977228  0.97322080  0.74098609    -0.18700
H1450       H  0.84884716  0.92071340  0.72570590     0.19100
H1451       H  0.98125055  0.83216345  0.77043500     0.19100
F1452       F  0.91156825  0.77962934  0.75562979    -0.18700
C1453       C  0.53654298  0.90791464  0.66442508    -0.20100
C1454       C  0.54893552  0.95560922  0.66013102    -0.08100
C1455       C  0.59688257  0.96811525  0.65943648     0.30700
C1456       C  0.63147282  0.93412011  0.66572443    -0.20100
C1457       C  0.61861815  0.88727252  0.67296727    -0.08200
C1458       C  0.57094135  0.87393074  0.67050026     0.30700
F1459       F  0.55718884  0.82855359  0.67572762    -0.18700
H1460       H  0.49976882  0.89772670  0.66571865     0.19100
H1461       H  0.66794351  0.94528580  0.66712133     0.19100
F1462       F  0.60987785  0.01414472  0.65611356    -0.18700
C1463       C  0.87696652  0.60407271  0.68939455    -0.20100
C1464       C  0.83309775  0.61478530  0.67682198    -0.08100
C1465       C  0.81747637  0.58742279  0.65366412     0.30700
C1466       C  0.84380250  0.54911917  0.64458297    -0.20100
C1467       C  0.88654097  0.53751620  0.65783425    -0.08200
C1468       C  0.90348303  0.56583780  0.67997912     0.30700
F1469       F  0.94399579  0.55419970  0.69389425    -0.18700
H1470       H  0.89017754  0.62445913  0.70700168     0.19100
H1471       H  0.82942659  0.52672059  0.62822151     0.19100
F1472       F  0.77535610  0.59572922  0.64067510    -0.18700
C1473       C  0.78834495  0.79063963  0.55133659    -0.20100
C1474       C  0.78932604  0.74412412  0.54119242    -0.08100
C1475       C  0.77370304  0.70704043  0.55959656     0.30700
C1476       C  0.75728559  0.71642722  0.58664300    -0.20100
C1477       C  0.75794707  0.76237643  0.59696356    -0.08200
C1478       C  0.77361880  0.79966179  0.57914775     0.30700
F1479       F  0.77464668  0.84461505  0.58856201    -0.18700
H1480       H  0.79976956  0.82008942  0.53813365     0.19100
H1481       H  0.74648671  0.68694233  0.60027613     0.19100
F1482       F  0.77706250  0.66101225  0.55253676    -0.18700
C1483       C  0.88341708  0.82029718  0.02375873    -0.20100
C1484       C  0.83662141  0.81945045  0.01405878    -0.08100
C1485       C  0.82000536  0.85859776  0.99808646     0.30700
C1486       C  0.85182453  0.89263626  0.98717483    -0.20100
C1487       C  0.90044119  0.88857685  0.99274850    -0.08200
C1488       C  0.91526520  0.85383379  0.01297202     0.30700
F1489       F  0.96119129  0.84948951  0.02074648    -0.18700
H1490       H  0.89698594  0.79076073  0.03636975     0.19100
H1491       H  0.83877018  0.92028998  0.97293805     0.19100
F1492       F  0.77423917  0.86031505  0.98975867    -0.18700
C1493       C  0.64190716  0.67886646  0.97903592    -0.20100
C1494       C  0.64922657  0.63453132  0.96687832    -0.08100
C1495       C  0.69488170  0.61634481  0.96649077     0.30700
C1496       C  0.73232424  0.64179305  0.97797285    -0.20100
C1497       C  0.72609205  0.68736949  0.98888902    -0.08200
C1498       C  0.68002755  0.70558461  0.98945643     0.30700
F1499       F  0.71066455  0.73524918  0.50554874    -0.18700
H1500       H  0.60668295  0.69312309  0.98003119     0.19100
H1501       H  0.76653145  0.62532226  0.97800450     0.19100
F1502       F  0.70315155  0.57284005  0.95609605    -0.18700
C1503       C  0.04938720  0.00806275  0.83510051    -0.20100
C1504       C  0.00644831  0.00433074  0.84942601    -0.08100
C1505       C  0.45555708  0.50962380  0.82795224     0.30700
C1506       C  0.45313956  0.50673316  0.79817177    -0.20100
C1507       C  0.01206605  0.98492991  0.79053307    -0.08200
C1508       C  0.05259363  0.99765902  0.80640317     0.30700
F1509       F  0.09635358  0.99629976  0.79517284    -0.18700
H1510       H  0.08154385  0.01626105  0.84659378     0.19100
H1511       H  0.41904058  0.50595750  0.78776643     0.19100
F1512       F  0.41511483  0.51230872  0.84298116    -0.18700
C1513       C  0.49498008  0.07147854  0.57578089    -0.20100
C1514       C  0.03488889  0.00324649  0.55989745    -0.08100
C1515       C  0.98463598  0.46085747  0.56979121     0.30700
C1516       C  0.97374872  0.45186214  0.59820529    -0.20100
C1517       C  0.00952763  0.98643277  0.61756463    -0.08200
C1518       C  0.49471476  0.07066930  0.60570685     0.30700
F1519       F  0.50017797  0.11184720  0.61957095    -0.18700
H1520       H  0.49861752  0.10502297  0.56440190     0.19100
H1521       H  0.97079156  0.41532291  0.60526130     0.19100
F1522       F  0.99172700  0.42364238  0.55264375    -0.18700
C1523       C  0.77554809  0.76507062  0.82148861    -0.20100
C1524       C  0.72955665  0.76056071  0.81095221    -0.08100
C1525       C  0.69160514  0.76576793  0.82972034     0.30700
C1526       C  0.70018937  0.77463616  0.85871434    -0.20100
C1527       C  0.74658078  0.77954682  0.86910161    -0.08200
C1528       C  0.78406848  0.77553457  0.84982981     0.30700
F1529       F  0.82912847  0.78483498  0.85780433    -0.18700
H1530       H  0.80527771  0.76282384  0.80728527     0.19100
H1531       H  0.67075031  0.77839606  0.87293853     0.19100
F1532       F  0.64656881  0.76198416  0.82013384    -0.17700
C1533       C  0.82350008  0.65090987  0.91822714    -0.20100
C1534       C  0.87169830  0.65349524  0.92532666    -0.08100
C1535       C  0.89554921  0.69684581  0.92199924     0.30700
C1536       C  0.87078984  0.73772567  0.91512814    -0.20100
C1537       C  0.82174390  0.73648463  0.91167824    -0.08200
C1538       C  0.79828629  0.69247383  0.91188655     0.30700
F1539       F  0.75074684  0.69009203  0.90903154    -0.18700
H1540       H  0.80466542  0.61760364  0.92016690     0.19100
H1541       H  0.88977136  0.77103678  0.91409892     0.19100
F1542       F  0.94279304  0.70001147  0.92627219    -0.18700
C1543       C  0.62677399  0.86762926  0.93747747    -0.20100
C1544       C  0.62011386  0.91258639  0.92481751    -0.08100
C1545       C  0.65030115  0.92739708  0.90248179     0.30700
C1546       C  0.68802035  0.89926101  0.89462386    -0.20100
C1547       C  0.69590682  0.85565870  0.90832338    -0.08200
C1548       C  0.66425640  0.83930782  0.92924741     0.30700
F1549       F  0.67226934  0.79785990  0.94354887    -0.18700
H1550       H  0.60392848  0.85500066  0.95439693     0.19100
H1551       H  0.71302256  0.91296643  0.87916716     0.19100
F1552       F  0.64543806  0.97035330  0.88934711    -0.18700
loop_ 
_geom_bond_atom_site_label_1 
_geom_bond_atom_site_label_2 
_geom_bond_distance 
_geom_bond_site_symmetry_2 
_ccdc_geom_bond_type 
N1            C5   1.361       .  A
N1            C2   1.361       .  A
N1          C169   1.446       .  S
C2            C3   1.380       .  A
C2          C179   1.486       .  S
C3            C4   1.367       .  A
C3            H6   1.080       .  S
C4            C5   1.376       .  A
C4            H7   1.081       .  S
C5          C189   1.476       .  S
Zn8          O24   2.013       .  S
Zn8         O789   2.015       .  S
Zn8         O211   2.040       .  S
Zn8         O400   1.916       .  S
Zn9          O14   1.995       .  S
Zn9          O20   1.982       .  S
Zn9         O404   2.007       .  S
Zn9         O788   1.879   1_455  S
Zn10         O21   1.990       .  S
Zn10        O209   2.025       .  S
Zn10        O794   2.093       .  S
Zn10         O12   1.927       .  S
Zn11         O19   2.072       .  S
Zn11         O22   2.027       .  S
Zn11        O411   2.025       .  S
Zn11         O12   1.945       .  S
O12        Zn396   1.923       .  S
O12        Zn785   1.904       .  S
O13        Zn784   1.980       .  S
O13          C25   1.269       .  A
O14          C26   1.270       .  A
O15        Zn204   2.042   1_554  S
O15          C27   1.283       .  A
O16        Zn397   2.074       .  S
O16          C25   1.283       .  A
O17        Zn202   2.023   1_554  S
O17         C415   1.279       .  A
O18        Zn786   2.072       .  S
O18          C26   1.282       .  A
O19          C28   1.281       .  A
O20         C805   1.275   1_455  A
O21          C28   1.272       .  A
O22          C29   1.280       .  A
O23        Zn399   2.029       .  S
O23          C30   1.276       .  A
O24          C30   1.278       .  A
C25         C136   1.475       .  S
C26         C186   1.491       .  S
C27         C156   1.478       .  S
C27         O405   1.278       .  A
C28         C129   1.494       .  S
C29         C146   1.480       .  S
C29         O796   1.283       .  A
C30         C176   1.479       .  S
N31          C35   1.367       .  A
N31          C32   1.372       .  A
N31         C310   1.459       .  S
C32          C33   1.377       .  A
C32         C139   1.494       .  S
C33          C34   1.352       .  A
C33          H36   1.074       .  S
C34          C35   1.378       .  A
C34          H37   1.083       .  S
C35         C126   1.481       .  S
N38          C42   1.365   1_655  A
N38        C1203   1.371       .  A
N38         C935   1.448       .  S
C39        N1202   1.371       .  A
C39          C40   1.378       .  A
C39         C109   1.499   1_565  S
C40        C1205   1.362       .  A
C40          H43   1.082       .  S
C41          C42   1.368       .  A
C41        C1204   1.358   1_455  A
C41          H44   1.062       .  S
C42          C96   1.482       .  S
Zn45         O50   2.003       .  S
Zn45         O54   2.030       .  S
Zn45         O61   2.084       .  S
Zn45         O49   1.926       .  S
Zn46         O51   2.016       .  S
Zn46         O53   2.080       .  S
Zn46         O57   2.017       .  S
Zn46         O49   1.925       .  S
Zn47         O52   2.026       .  S
Zn47         O55   2.086       .  S
Zn47         O58   2.029       .  S
Zn47         O49   1.942       .  S
Zn48         O56   2.045       .  S
Zn48         O59   2.026       .  S
Zn48         O60   1.986       .  S
Zn48         O49   1.906       .  S
O50          C62   1.271       .  A
O51          C63   1.274       .  A
O52          C64   1.281       .  A
O53          C62   1.282       .  A
O54          C64   1.283       .  A
O55          C63   1.282       .  A
O56          C65   1.279       .  A
O57          C66   1.280       .  A
O58          C65   1.273       .  A
O59          C66   1.281       .  A
O60          C67   1.270       .  A
O61          C67   1.282       .  A
C62         C106   1.498       .  S
C63          C86   1.503       .  S
C64         C119   1.476       .  S
C65          C99   1.489       .  S
C66         C166   1.472       .  S
C67          C79   1.494       .  S
N68         C460   1.368       .  A
N68         C845   1.360       .  A
N68         C925   1.448       .  S
C69         N844   1.367       .  A
C69          C70   1.378       .  A
C69          C89   1.491       .  S
C70        C1235   1.361       .  A
C70          H73   1.081       .  S
C71          C72   1.370       .  A
C71        C1234   1.363       .  A
C71          H74   1.078       .  S
C72         N456   1.368       .  A
C72          C76   1.485       .  S
C75          C76   1.407   1_455  A
C75          C80   1.406       .  A
C75          H82   1.080       .  S
C76          C77   1.404       .  A
C77          C78   1.400   1_655  A
C77          F84   1.358       .  S
C78          C79   1.411       .  A
C78          H83   1.083       .  S
C79          C80   1.408       .  A
C80          F81   1.357       .  S
C85          C86   1.410       .  A
C85          C90   1.412       .  A
C85          H92   1.083       .  S
C86          C87   1.414       .  A
C87          C88   1.400       .  A
C87          F94   1.357       .  S
C88          C89   1.404       .  A
C88          H93   1.084       .  S
C89          C90   1.408       .  A
C90          F91   1.357       .  S
C95          C96   1.404       .  A
C95         C100   1.401       .  A
C95         H102   1.083   1_455  S
C96          C97   1.407       .  A
C97          C98   1.405       .  A
C97         F104   1.357       .  S
C98          C99   1.406       .  A
C98         H103   1.083       .  S
C99         C100   1.408       .  A
C100        F101   1.357       .  S
C105        C106   1.406       .  A
C105        C110   1.407       .  A
C105        H112   1.083       .  S
C106        C107   1.414       .  A
C107        C108   1.400       .  A
C107        F114   1.358       .  S
C108        C109   1.405       .  A
C108        H113   1.084       .  S
C109        C110   1.413       .  A
C110        F111   1.352       .  S
C115        C116   1.408       .  A
C115        C120   1.405       .  A
C115        H122   1.078       .  S
C116        N225   1.453       .  S
C116        C117   1.416       .  A
C117        C118   1.392       .  A
C117        F124   1.357       .  S
C118        C119   1.398       .  A
C118        H123   1.084       .  S
C119        C120   1.406       .  A
C120        F121   1.357       .  S
C125        C126   1.398       .  A
C125        C130   1.392       .  A
C125        H132   1.084       .  S
C126        C127   1.407       .  A
C127        C128   1.408       .  A
C127        F134   1.356       .  S
C128        C129   1.408       .  A
C128        H133   1.083       .  S
C129        C130   1.415       .  A
C130        F131   1.356       .  S
C135        C136   1.409       .  A
C135        C140   1.408       .  A
C135        H142   1.083       .  S
C136        C137   1.399       .  A
C137        C138   1.393       .  A
C137        F144   1.358       .  S
C138        C139   1.411       .  A
C138        H143   1.082       .  S
C139        C140   1.408       .  A
C140        F335   1.357       .  S
F141        C334   1.355   1_554  S
C145        C146   1.398       .  A
C145        C150   1.390       .  A
C145        H152   1.084       .  S
C146       C1311   1.410       .  A
C147        C148   1.399       .  A
C147       C1310   1.409       .  A
C147        F154   1.358       .  S
C148       C1313   1.407       .  A
C148        H153   1.083       .  S
C149        N844   1.450       .  S
C149        C150   1.416       .  A
C149       C1312   1.406       .  A
C150        F151   1.357       .  S
C155        C160   1.403       .  A
C155        C932   1.407       .  A
C155        H162   1.083       .  S
C156        C931   1.407       .  A
C156        C545   1.402       .  A
C157        C158   1.391       .  A
C157        C544   1.402   1_565  A
C157        F164   1.358       .  S
C158        C547   1.413       .  A
C158        H163   1.082       .  S
C159        N814   1.448       .  S
C159        C546   1.409       .  A
C159        C936   1.408       .  A
C160        C935   1.408       .  A
C160        F161   1.356       .  S
C165        C166   1.399       .  A
C165        C170   1.392       .  A
C165        H172   1.084       .  S
C166        C167   1.405       .  A
C167        C168   1.404       .  A
C167        F174   1.357       .  S
C168        C169   1.407       .  A
C168        H173   1.081       .  S
C169        C170   1.412       .  A
C170        F171   1.357       .  S
C175        C176   1.408       .  A
C175        C180   1.406       .  A
C175        H182   1.083       .  S
C176        C177   1.406       .  A
C177        C178   1.391       .  A
C177        F184   1.358       .  S
C178        C179   1.403       .  A
C178        H183   1.083       .  S
C179        C180   1.409       .  A
C180        F181   1.357       .  S
C185        C186   1.405       .  A
C185        C190   1.402       .  A
C185        H192   1.083       .  S
C186        C187   1.415       .  A
C187        C188   1.400       .  A
C187        F194   1.358       .  S
C188        C189   1.399       .  A
C188        H193   1.084       .  S
C189        C190   1.406       .  A
C190        F191   1.356       .  S
N195        C199   1.362       .  A
N195        C196   1.357       .  A
N195        C363   1.444       .  S
C196        C197   1.368       .  A
C196        C373   1.470       .  S
C197        C198   1.359       .  A
C197        H200   1.067       .  S
C198        C199   1.378       .  A
C198        H201   1.083       .  S
C199        C383   1.467       .  S
Zn202       O983   2.008       .  S
Zn202       O218   2.011       .  S
Zn202       O594   1.901       .  S
Zn203       O208   1.979       .  S
Zn203       O598   2.015       .  S
Zn203       O214   2.004       .  S
Zn203       O982   1.906   1_455  S
Zn204       O988   2.098       .  S
Zn204       O215   2.006       .  S
Zn204       O206   1.927       .  S
Zn205       O213   2.097       .  S
Zn205       O216   2.039       .  S
Zn205       O605   2.046       .  S
Zn205       O206   1.953       .  S
O206       Zn590   1.920       .  S
O206       Zn979   1.913       .  S
O207       Zn978   2.017       .  S
O207        C219   1.272       .  A
O208        C220   1.268       .  A
O209        C221   1.281       .  A
O210       Zn591   2.048       .  S
O210        C219   1.278       .  A
O211        C609   1.280       .  A
O212       Zn980   2.048   1_455  S
O212        C220   1.279       .  A
O213        C222   1.286       .  A
O214        C999   1.277   1_455  A
O215        C222   1.274       .  A
O216        C223   1.282       .  A
O217       Zn593   2.025   1_545  S
O217        C224   1.276       .  A
O218        C224   1.278       .  A
C219        C330   1.484       .  S
C220        C380   1.481       .  S
C221        C350   1.487       .  S
C221        O599   1.283       .  A
C222        C323   1.504       .  S
C223        C340   1.477       .  S
C223        O990   1.280       .  A
C224        C370   1.477       .  S
N225        C229   1.370       .  A
N225        C226   1.371       .  A
C226        C227   1.381   1_554  A
C226        C333   1.509   1_554  S
C227        C228   1.363       .  A
C227        H230   1.074       .  S
C228        C229   1.379   1_556  A
C228        H231   1.082       .  S
C229        C320   1.495       .  S
N232        C236   1.364       .  A
N232       C1397   1.364       .  A
N232       C1129   1.451       .  S
C233       N1396   1.366       .  A
C233        C234   1.377       .  A
C233        C303   1.473       .  S
C234       C1399   1.357   1_545  A
C234        H237   1.083       .  S
C235       C1398   1.364       .  A
C235        C236   1.381       .  A
C235        H238   1.081       .  S
C236        C290   1.491   1_655  S
Zn239       O244   1.993       .  S
Zn239       O248   2.006       .  S
Zn239       O255   2.026       .  S
Zn239       O243   1.913       .  S
Zn240       O245   1.969       .  S
Zn240       O247   2.042       .  S
Zn240       O251   2.028       .  S
Zn240       O243   1.904       .  S
Zn241       O246   2.060       .  S
Zn241       O249   2.098       .  S
Zn241       O252   2.039       .  S
Zn241       O243   1.944       .  S
Zn242       O250   2.014       .  S
Zn242       O253   2.029       .  S
Zn242       O254   2.017       .  S
Zn242       O243   1.914       .  S
O244        C256   1.269       .  A
O245        C257   1.268       .  A
O246        C258   1.283       .  A
O247        C256   1.279       .  A
O248        C258   1.278       .  A
O249        C257   1.285       .  A
O250        C259   1.279       .  A
O251        C260   1.280       .  A
O252        C259   1.277       .  A
O253        C260   1.279       .  A
O254        C261   1.272       .  A
O255        C261   1.277       .  A
C256        C300   1.481       .  S
C257        C280   1.492       .  S
C258        C313   1.488       .  S
C259        C293   1.482       .  S
C260        C360   1.479       .  S
C261        C273   1.479       .  S
N262        C654   1.369   1_655  A
N262       C1039   1.366       .  A
N262       C1119   1.452       .  S
C263       N1038   1.361       .  A
C263        C264   1.371       .  A
C263        C283   1.477       .  S
C264       C1429   1.359       .  A
C264        H267   1.075       .  S
C265       C1428   1.361       .  A
C265        C266   1.378       .  A
C265        H268   1.076       .  S
C266        N650   1.366       .  A
C266        C270   1.493   1_565  S
C269        C270   1.407       .  A
C269        C274   1.393       .  A
C269        H276   1.082   1_545  S
C270        C271   1.409       .  A
C271        C272   1.406       .  A
C271        F278   1.357       .  S
C272        C273   1.407       .  A
C272        H277   1.083       .  S
C273        C274   1.403       .  A
C274        F275   1.358       .  S
C279        C280   1.405       .  A
C279        C284   1.406       .  A
C279        H286   1.083       .  S
C280        C281   1.415       .  A
C281        C282   1.395       .  A
C281        F288   1.358       .  S
C282        C283   1.399       .  A
C282        H287   1.084       .  S
C283        C284   1.408       .  A
C284        F285   1.356       .  S
C289        C290   1.404       .  A
C289        C294   1.391       .  A
C289        H296   1.083   1_455  S
C290        C291   1.411       .  A
C291        C292   1.408       .  A
C291        F298   1.357       .  S
C292        C293   1.408       .  A
C292        H297   1.083       .  S
C293        C294   1.405       .  A
C294        F295   1.358       .  S
C299        C300   1.401       .  A
C299        C304   1.395       .  A
C299        H306   1.083       .  S
C300        C301   1.412       .  A
C301        C302   1.403       .  A
C301        F308   1.357       .  S
C302        C303   1.401       .  A
C302        H307   1.083       .  S
C303        C304   1.407       .  A
C304        F305   1.358       .  S
C309        C310   1.413       .  A
C309        C314   1.405       .  A
C309        H316   1.073       .  S
C310        C311   1.415       .  A
C311        C312   1.397       .  A
C311        F318   1.355       .  S
C312        C313   1.404       .  A
C312        H317   1.083       .  S
C313        C314   1.404       .  A
C314        F315   1.357       .  S
C319        C320   1.403       .  A
C319        C324   1.400       .  A
C319        H326   1.084       .  S
C320        C321   1.412   1_554  A
C321        C322   1.410       .  A
C321        F328   1.353       .  S
C322        C323   1.408       .  A
C322        H327   1.083       .  S
C323        C324   1.416   1_556  A
C324        F325   1.358       .  S
C329        C330   1.406       .  A
C329        C334   1.407       .  A
C329        H336   1.083       .  S
C330        C331   1.402       .  A
C331        C332   1.397       .  A
C331        F338   1.358       .  S
C332        C333   1.412       .  A
C332        H337   1.081       .  S
C333        C334   1.414       .  A
C339        C340   1.400       .  A
C339        C344   1.391       .  A
C339        H346   1.084       .  S
C340       C1505   1.407       .  A
C341       C1504   1.406   1_665  A
C341        C342   1.404       .  A
C341        F348   1.357       .  S
C342       C1507   1.410   1_655  A
C342        H347   1.078       .  S
C343       N1038   1.445       .  S
C343       C1506   1.407       .  A
C343        C344   1.412       .  A
C344        F345   1.356       .  S
C349       C1126   1.406       .  A
C349        C354   1.406       .  A
C349        H356   1.083       .  S
C350       C1125   1.405       .  A
C350        C739   1.407       .  A
C351        C738   1.406   1_565  A
C351        C352   1.396       .  A
C351        F358   1.358       .  S
C352        C741   1.404   1_565  A
C352        H357   1.082       .  S
C353       N1008   1.454       .  S
C353        C740   1.407       .  A
C353       C1130   1.412       .  A
C354       C1129   1.410       .  A
C354        F355   1.355       .  S
C359        C360   1.400       .  A
C359        C364   1.394       .  A
C359        H366   1.084       .  S
C360        C361   1.409       .  A
C361        C362   1.407       .  A
C361        F368   1.357       .  S
C362        C363   1.405       .  A
C362        H367   1.083       .  S
C363        C364   1.409       .  A
C364        F365   1.356       .  S
C369        C370   1.406       .  A
C369        C374   1.401       .  A
C369        H376   1.083       .  S
C370        C371   1.407       .  A
C371        C372   1.393       .  A
C371        F378   1.358       .  S
C372        C373   1.401       .  A
C372        H377   1.084       .  S
C373        C374   1.404       .  A
C374        F375   1.357       .  S
C379        C380   1.402       .  A
C379        C384   1.396       .  A
C379        H386   1.083       .  S
C380        C381   1.413       .  A
C381        C382   1.399       .  A
C381        F388   1.357       .  S
C382        C383   1.398       .  A
C382        H387   1.084       .  S
C383        C384   1.407       .  A
C384        F385   1.358       .  S
N389        C393   1.368       .  A
N389        C390   1.373       .  A
N389        C557   1.453       .  S
C390        C391   1.387       .  A
C390        C567   1.511       .  S
C391        C392   1.363       .  A
C391        H394   1.081       .  S
C392        C393   1.374       .  A
C392        H395   1.079       .  S
C393        C577   1.491       .  S
Zn396      O1177   2.027       .  S
Zn396       O599   2.049       .  S
Zn396       O412   2.062       .  S
Zn397       O402   2.024   1_545  S
Zn397       O408   2.070       .  S
Zn397      O1176   1.933       .  S
Zn398       O597   2.020       .  S
Zn398      O1182   2.036       .  S
Zn398       O409   1.969       .  S
Zn398       O400   1.907   1_565  S
Zn399       O407   2.098   1_545  S
Zn399       O410   2.058   1_545  S
Zn399       O400   1.946       .  S
O400      Zn1173   1.913       .  S
O401      Zn1172   2.013   1_455  S
O401        C413   1.271       .  A
O402        C414   1.275       .  A
O403       Zn592   2.015   1_554  S
O403        C415   1.279   1_565  A
O404        C413   1.274       .  A
O405       Zn590   2.007   1_554  S
O406      Zn1174   2.088       .  S
O406        C414   1.284       .  A
O407        C416   1.284       .  A
O408       C1193   1.285   1_455  A
O409        C416   1.268       .  A
O410        C417   1.283   1_565  A
O411        C418   1.274       .  A
O412        C418   1.281       .  A
C413        C524   1.472       .  S
C414        C574   1.503       .  S
C415        C544   1.477       .  S
C416        C517   1.492       .  S
C417        C534   1.477       .  S
C417       O1184   1.275       .  A
C418        C564   1.495       .  S
N419        C423   1.360       .  A
N419        C420   1.364       .  A
N419        C698   1.447       .  S
C420        C421   1.378       .  A
C420        C527   1.482       .  S
C421        C422   1.360       .  A
C421        H424   1.079       .  S
C422        C423   1.372       .  A
C422        H425   1.073       .  S
C423        C514   1.476       .  S
N426        C430   1.365   1_655  A
N426        C815   1.362   1_565  A
N426       C1323   1.443   1_655  S
C427        N814   1.363       .  A
C427        C428   1.375       .  A
C427        C497   1.475       .  S
C428        C817   1.363       .  A
C428        H431   1.081       .  S
C429        C816   1.360   1_565  A
C429        C430   1.379   1_655  A
C429        H432   1.082       .  S
C430        C484   1.479       .  S
Zn433       O438   1.987       .  S
Zn433       O442   2.003       .  S
Zn433       O449   2.011       .  S
Zn433       O437   1.895       .  S
Zn434       O439   2.007       .  S
Zn434       O441   2.072       .  S
Zn434       O445   2.025       .  S
Zn434       O437   1.928       .  S
Zn435       O440   2.040       .  S
Zn435       O443   2.031       .  S
Zn435       O446   1.983       .  S
Zn435       O437   1.915       .  S
Zn436       O444   2.057       .  S
Zn436       O447   2.044       .  S
Zn436       O448   2.030       .  S
Zn436       O437   1.928       .  S
O438        C450   1.270       .  A
O439        C451   1.272       .  A
O440        C452   1.280       .  A
O441        C450   1.281       .  A
O442        C452   1.277       .  A
O443        C451   1.279       .  A
O444        C453   1.282       .  A
O445        C454   1.281       .  A
O446        C453   1.270       .  A
O447        C454   1.281       .  A
O448        C455   1.275       .  A
O449        C455   1.275       .  A
C450        C494   1.494       .  S
C451        C474   1.483       .  S
C452        C507   1.480       .  S
C453        C487   1.483       .  S
C454        C554   1.487       .  S
C455        C467   1.481       .  S
N456       C1233   1.374       .  A
N456       C1313   1.453       .  S
C457       N1232   1.357       .  A
C457        C458   1.366       .  A
C457        C477   1.470       .  S
C458        C847   1.356   1_565  A
C458        H461   1.065       .  S
C459        C846   1.365       .  A
C459        C460   1.385       .  A
C459        H462   1.075       .  S
C460        C464   1.515       .  S
C463        C464   1.412       .  A
C463        C468   1.393       .  A
C463        H470   1.077       .  S
C464        C465   1.421       .  A
C465        C466   1.404       .  A
C465        F472   1.353       .  S
C466        C467   1.402       .  A
C466        H471   1.083       .  S
C467        C468   1.402       .  A
C468        F469   1.358       .  S
C473        C474   1.404       .  A
C473        C478   1.395       .  A
C473        H480   1.083       .  S
C474        C475   1.411       .  A
C475        C476   1.401       .  A
C475        F482   1.357       .  S
C476        C477   1.402       .  A
C476        H481   1.084       .  S
C477        C478   1.404       .  A
C478        F479   1.358       .  S
C483        C484   1.407       .  A
C483        C488   1.394       .  A
C483        H490   1.084   1_455  S
C484        C485   1.403       .  A
C485        C486   1.402       .  A
C485        F492   1.357       .  S
C486        C487   1.412       .  A
C486        H491   1.083       .  S
C487        C488   1.404       .  A
C488        F489   1.357       .  S
C493        C494   1.406       .  A
C493        C498   1.403       .  A
C493        H500   1.083       .  S
C494        C495   1.417       .  A
C495        C496   1.399       .  A
C495        F502   1.358       .  S
C496        C497   1.398       .  A
C496        H501   1.084       .  S
C497        C498   1.407       .  A
C498        F499   1.356       .  S
C503        C504   1.409       .  A
C503        C508   1.403       .  A
C503        H510   1.077       .  S
C504        N613   1.452       .  S
C504        C505   1.414       .  A
C505        C506   1.393       .  A
C505        F512   1.356       .  S
C506        C507   1.401       .  A
C506        H511   1.084       .  S
C507        C508   1.405       .  A
C508        F509   1.357       .  S
C513        C514   1.398       .  A
C513        C518   1.394       .  A
C513        H520   1.084       .  S
C514        C515   1.408       .  A
C515        C516   1.407       .  A
C515        F522   1.356       .  S
C516        C517   1.406       .  A
C516        H521   1.083       .  S
C517        C518   1.415       .  A
C518        F519   1.358       .  S
C523        C524   1.406       .  A
C523        C528   1.406       .  A
C523        H530   1.083       .  S
C524        C525   1.403       .  A
C525        C526   1.389       .  A
C525        F532   1.358       .  S
C526        C527   1.404       .  A
C526        H531   1.083       .  S
C527        C528   1.407       .  A
C528        F723   1.357       .  S
F529        C722   1.357       .  S
C533        C534   1.407   1_565  A
C533        C538   1.399       .  A
C533        H540   1.084       .  S
C534        C923   1.402       .  A
C535        C922   1.403       .  A
C535        C536   1.405       .  A
C535        F542   1.357       .  S
C536        C925   1.411   1_655  A
C536        H541   1.080       .  S
C537       N1232   1.443       .  S
C537        C924   1.408   1_565  A
C537        C538   1.405       .  A
C538        F539   1.356       .  S
C543       C1320   1.402   1_545  A
C543        C548   1.398       .  A
C543        H550   1.083       .  S
C544       C1319   1.402       .  A
C545        C546   1.392       .  A
C545        F552   1.358       .  S
C546        H551   1.082       .  S
C547       N1202   1.459       .  S
C547       C1324   1.415   1_565  A
C548       C1323   1.406   1_545  A
C548        F549   1.352       .  S
C553        C554   1.402       .  A
C553        C558   1.394       .  A
C553        H560   1.084       .  S
C554        C555   1.409       .  A
C555        C556   1.408       .  A
C555        F562   1.357       .  S
C556        C557   1.409       .  A
C556        H561   1.080       .  S
C557        C558   1.413       .  A
C558        F559   1.356       .  S
C563        C564   1.410       .  A
C563        C568   1.410       .  A
C563        H570   1.083       .  S
C564        C565   1.405       .  A
C565        C566   1.399       .  A
C565        F572   1.358       .  S
C566        C567   1.411       .  A
C566        H571   1.082       .  S
C567        C568   1.412       .  A
C568        F569   1.355       .  S
C573        C574   1.409       .  A
C573        C578   1.410       .  A
C573        H580   1.083       .  S
C574        C575   1.415       .  A
C575        C576   1.403       .  A
C575        F582   1.357       .  S
C576        C577   1.403       .  A
C576        H581   1.084       .  S
C577        C578   1.409       .  A
C578        F579   1.356       .  S
N583        C587   1.364       .  A
N583        C584   1.366       .  A
N583        C751   1.449       .  S
C584        C585   1.383       .  A
C584        C761   1.496       .  S
C585        C586   1.365       .  A
C585        H588   1.081       .  S
C586        C587   1.374       .  A
C586        H589   1.079       .  S
C587        C771   1.483       .  S
Zn590      O1371   1.992       .  S
Zn590       O606   2.011       .  S
Zn591       O596   1.991   1_545  S
Zn591       O602   2.007       .  S
Zn591      O1370   1.900       .  S
Zn592      O1376   2.049       .  S
Zn592       O603   1.973       .  S
Zn592       O594   1.904   1_565  S
Zn593       O601   2.065       .  S
Zn593       O604   2.040       .  S
Zn593       O594   1.925   1_565  S
O594      Zn1367   1.888       .  S
O595      Zn1366   2.023   1_455  S
O595        C607   1.272       .  A
O596        C608   1.270       .  A
O597        C609   1.279   1_565  A
O598        C607   1.275       .  A
O600      Zn1368   2.107       .  S
O600        C608   1.285       .  A
O601        C610   1.282       .  A
O602       C1387   1.280       .  A
O603        C610   1.270       .  A
O604        C611   1.280   1_565  A
O605        C612   1.275       .  A
O606        C612   1.275       .  A
C607        C718   1.478       .  S
C608        C768   1.504       .  S
C609        C738   1.483       .  S
C610        C711   1.484       .  S
C611        C728   1.472   1_545  S
C611       O1378   1.278       .  A
C612        C758   1.487       .  S
N613        C617   1.362   1_554  A
N613        C614   1.364   1_554  A
C614        C615   1.378       .  A
C614        C721   1.487       .  S
C615        C616   1.361       .  A
C615        H618   1.077       .  S
C616        C617   1.377       .  A
C616        H619   1.080       .  S
C617        C708   1.476   1_556  S
N620        C624   1.367       .  A
N620       C1009   1.366       .  A
N620       C1517   1.450   1_655  S
C621       N1008   1.368       .  A
C621        C622   1.374       .  A
C621        C691   1.485       .  S
C622       C1011   1.361       .  A
C622        H625   1.080       .  S
C623       C1010   1.360       .  A
C623        C624   1.382       .  A
C623        H626   1.080       .  S
C624        C678   1.492   1_655  S
Zn627       O632   2.008       .  S
Zn627       O636   2.005       .  S
Zn627       O643   2.034       .  S
Zn627       O631   1.907       .  S
Zn628       O633   1.986       .  S
Zn628       O635   2.073       .  S
Zn628       O639   2.030       .  S
Zn628       O631   1.921       .  S
Zn629       O634   2.039       .  S
Zn629       O637   2.087       .  S
Zn629       O640   2.028       .  S
Zn629       O631   1.957       .  S
Zn630       O638   2.019       .  S
Zn630       O641   2.021       .  S
Zn630       O642   2.018       .  S
Zn630       O631   1.924       .  S
O632        C644   1.272       .  A
O633        C645   1.271       .  A
O634        C646   1.281       .  A
O635        C644   1.281       .  A
O636        C646   1.278       .  A
O637        C645   1.284       .  A
O638        C647   1.277       .  A
O639        C648   1.281       .  A
O640        C647   1.274       .  A
O641        C648   1.279       .  A
O642        C649   1.272       .  A
O643        C649   1.277       .  A
C644        C688   1.497       .  S
C645        C668   1.497       .  S
C646        C701   1.476       .  S
C647        C681   1.485       .  S
C648        C748   1.479       .  S
C649        C661   1.479       .  S
N650       C1427   1.364       .  A
N650       C1507   1.454       .  S
C651       N1426   1.364       .  A
C651        C652   1.376       .  A
C651        C671   1.488       .  S
C652       C1041   1.364       .  A
C652        H655   1.082       .  S
C653       C1040   1.357       .  A
C653        C654   1.378       .  A
C653        H656   1.071       .  S
C654        C658   1.497       .  S
C657        C658   1.409       .  A
C657        C662   1.392       .  A
C657        H664   1.082       .  S
C658        C659   1.410       .  A
C659        C660   1.409       .  A
C659        F666   1.356   1_455  S
C660        C661   1.408       .  A
C660        H665   1.083       .  S
C661        C662   1.401       .  A
C662        F663   1.358       .  S
C667        C668   1.406       .  A
C667        C672   1.407       .  A
C667        H674   1.083       .  S
C668        C669   1.417       .  A
C669        C670   1.397       .  A
C669        F676   1.358       .  S
C670        C671   1.400       .  A
C670        H675   1.084       .  S
C671        C672   1.410       .  A
C672        F673   1.353       .  S
C677        C678   1.405       .  A
C677        C682   1.391       .  A
C677        H684   1.083   1_455  S
C678        C679   1.410       .  A
C679        C680   1.409       .  A
C679        F686   1.356       .  S
C680        C681   1.410       .  A
C680        H685   1.083       .  S
C681        C682   1.406       .  A
C682        F683   1.358       .  S
C687        C688   1.407       .  A
C687        C692   1.406       .  A
C687        H694   1.083       .  S
C688        C689   1.414       .  A
C689        C690   1.400       .  A
C689        F696   1.357       .  S
C690        C691   1.401       .  A
C690        H695   1.084       .  S
C691        C692   1.409       .  A
C692        F693   1.354       .  S
C697        C698   1.407       .  A
C697        C702   1.405       .  A
C697        H704   1.081       .  S
C698        C699   1.413       .  A
C699        C700   1.390       .  A
C699        F706   1.356       .  S
C700        C701   1.399       .  A
C700        H705   1.084       .  S
C701        C702   1.407       .  A
C702        F703   1.357       .  S
C707        C708   1.400       .  A
C707        C712   1.394   1_554  A
C707        H714   1.084       .  S
C708        C709   1.407   1_554  A
C709        C710   1.402       .  A
C709        F716   1.358       .  S
C710        C711   1.403       .  A
C710        H715   1.083       .  S
C711        C712   1.412       .  A
C712        F713   1.358   1_556  S
C717        C718   1.408       .  A
C717        C722   1.406       .  A
C717        H724   1.083       .  S
C718        C719   1.404       .  A
C719        C720   1.391       .  A
C719        F726   1.358       .  S
C720        C721   1.405       .  A
C720        H725   1.083       .  S
C721        C722   1.408       .  A
C727        C728   1.398       .  A
C727        C732   1.388       .  A
C727        H734   1.084       .  S
C728       C1117   1.405       .  A
C729       C1116   1.407       .  A
C729        C730   1.406       .  A
C729        F736   1.357       .  S
C730       C1119   1.409       .  A
C730        H735   1.080       .  S
C731       N1426   1.450       .  S
C731       C1118   1.410       .  A
C731        C732   1.413       .  A
C732        F733   1.357       .  S
C737       C1514   1.409       .  A
C737        C742   1.408       .  A
C737        H744   1.083       .  S
C738       C1513   1.407       .  A
C739        C740   1.395       .  A
C739        F746   1.356       .  S
C740        H745   1.082       .  S
C741       N1396   1.446       .  S
C741       C1518   1.409       .  A
C742       C1517   1.409   1_545  A
C742        F743   1.356       .  S
C747        C748   1.399       .  A
C747        C752   1.392       .  A
C747        H754   1.084       .  S
C748        C749   1.408       .  A
C749        C750   1.406       .  A
C749        F756   1.357       .  S
C750        C751   1.407       .  A
C750        H755   1.082       .  S
C751        C752   1.414       .  A
C752        F753   1.357       .  S
C757        C758   1.407       .  A
C757        C762   1.410       .  A
C757        H764   1.083       .  S
C758        C759   1.407       .  A
C759        C760   1.393       .  A
C759        F766   1.358       .  S
C760        C761   1.405       .  A
C760        H765   1.083       .  S
C761        C762   1.411       .  A
C762        F763   1.357       .  S
C767        C768   1.408       .  A
C767        C772   1.409       .  A
C767        H774   1.083       .  S
C768        C769   1.419       .  A
C769        C770   1.401       .  A
C769        F776   1.358       .  S
C770        C771   1.399       .  A
C770        H775   1.084       .  S
C771        C772   1.409       .  A
C772        F773   1.357       .  S
N777        C781   1.364       .  A
N777        C778   1.367       .  A
N777        C945   1.453       .  S
C778        C779   1.385       .  A
C778        C955   1.498       .  S
C779        C780   1.365       .  A
C779        H782   1.081       .  S
C780        C781   1.374       .  A
C780        H783   1.079       .  S
C781        C965   1.483       .  S
Zn784       O987   2.023       .  S
Zn784       O800   2.005   1_455  S
Zn784      O1176   1.925       .  S
Zn785       O790   1.998       .  S
Zn785      O1180   2.059       .  S
Zn785       O796   2.027       .  S
Zn786       O985   2.021       .  S
Zn786       O797   1.989   1_455  S
Zn786       O788   1.896   1_455  S
Zn787       O795   2.064       .  S
Zn787       O798   2.038       .  S
Zn787      O1187   2.012       .  S
Zn787       O788   1.927       .  S
O788      Zn1172   1.902       .  S
O789        C801   1.272       .  A
O790        C802   1.270       .  A
O791       Zn980   2.043   1_454  S
O791        C803   1.281   1_455  A
O792      Zn1173   2.020       .  S
O792        C801   1.275       .  A
O793       Zn978   2.015   1_554  S
O793       C1191   1.281       .  A
O794        C802   1.282       .  A
O795        C804   1.282       .  A
O797        C804   1.272       .  A
O798        C805   1.281       .  A
O799      Zn1175   2.049       .  S
O799        C806   1.276       .  A
O800        C806   1.273       .  A
C801        C912   1.478       .  S
C802        C962   1.503       .  S
C803        C932   1.488       .  S
C803       O1181   1.279       .  A
C804        C905   1.488       .  S
C805        C922   1.464       .  S
C806        C952   1.490       .  S
N807        C811   1.364       .  A
N807        C808   1.366       .  A
N807       C1086   1.454       .  S
C808        C809   1.377       .  A
C808        C915   1.487       .  S
C809        C810   1.359       .  A
C809        H812   1.077       .  S
C810        C811   1.377       .  A
C810        H813   1.080       .  S
C811        C902   1.476       .  S
N814        C818   1.363       .  A
C815        C816   1.372       .  A
C815        C885   1.474       .  S
C816        H819   1.072       .  S
C817        C818   1.383       .  A
C817        H820   1.081       .  S
C818        C872   1.491       .  S
Zn821       O826   2.006       .  S
Zn821       O830   1.993       .  S
Zn821       O837   2.020       .  S
Zn821       O825   1.909       .  S
Zn822       O827   1.941       .  S
Zn822       O829   2.026       .  S
Zn822       O833   2.038       .  S
Zn822       O825   1.881       .  S
Zn823       O828   2.063       .  S
Zn823       O831   2.109       .  S
Zn823       O834   2.034       .  S
Zn823       O825   1.939       .  S
Zn824       O832   2.015       .  S
Zn824       O835   2.026       .  S
Zn824       O836   1.993       .  S
Zn824       O825   1.902       .  S
O826        C838   1.269       .  A
O827        C839   1.265       .  A
O828        C840   1.285       .  A
O829        C838   1.276       .  A
O830        C840   1.277       .  A
O831        C839   1.286       .  A
O832        C841   1.278       .  A
O833        C842   1.282       .  A
O834        C841   1.276       .  A
O835        C842   1.280       .  A
O836        C843   1.270       .  A
O837        C843   1.277       .  A
C838        C882   1.480       .  S
C839        C862   1.494       .  S
C840        C895   1.481       .  S
C841        C875   1.482       .  S
C842        C942   1.483       .  S
C843        C855   1.474       .  S
N844       C1236   1.367       .  A
C845        C846   1.373       .  A
C845        C865   1.484   1_455  S
C846        H849   1.081       .  S
C847        C848   1.375       .  A
C847        H850   1.083       .  S
C848       N1232   1.363   1_545  A
C848        C852   1.466       .  S
C851        C852   1.404       .  A
C851        C856   1.393       .  A
C851        H858   1.084       .  S
C852        C853   1.402       .  A
C853        C854   1.400       .  A
C853        F860   1.357       .  S
C854        C855   1.408       .  A
C854        H859   1.083       .  S
C855        C856   1.404       .  A
C856        F857   1.358       .  S
C861        C862   1.403       .  A
C861        C866   1.405       .  A
C861        H868   1.083       .  S
C862        C863   1.421       .  A
C863        C864   1.394       .  A
C863        F870   1.358       .  S
C864        C865   1.396       .  A
C864        H869   1.084       .  S
C865        C866   1.410       .  A
C866        F867   1.350       .  S
C871        C872   1.404       .  A
C871        C876   1.392       .  A
C871        H878   1.083       .  S
C872        C873   1.412       .  A
C873        C874   1.408       .  A
C873        F880   1.356       .  S
C874        C875   1.407       .  A
C874        H879   1.083       .  S
C875        C876   1.406       .  A
C876        F877   1.358       .  S
C881        C882   1.402       .  A
C881        C886   1.396       .  A
C881        H888   1.083       .  S
C882        C883   1.407       .  A
C883        C884   1.403       .  A
C883        F890   1.357       .  S
C884        C885   1.407       .  A
C884        H889   1.084       .  S
C885        C886   1.406       .  A
C886        F887   1.354       .  S
C891        C892   1.412       .  A
C891        C896   1.404       .  A
C891        H898   1.078       .  S
C892       N1001   1.453       .  S
C892        C893   1.413       .  A
C893        C894   1.395       .  A
C893        F900   1.355       .  S
C894        C895   1.403       .  A
C894        H899   1.084       .  S
C895        C896   1.404       .  A
C896        F897   1.357       .  S
C901        C902   1.401       .  A
C901        C906   1.396       .  A
C901        H908   1.084       .  S
C902        C903   1.406       .  A
C903        C904   1.401       .  A
C903        F910   1.356       .  S
C904        C905   1.405       .  A
C904        H909   1.082       .  S
C905        C906   1.413       .  A
C906        F907   1.357       .  S
C911        C912   1.408       .  A
C911        C916   1.406       .  A
C911        H918   1.083       .  S
C912        C913   1.403       .  A
C913        C914   1.391       .  A
C913        F920   1.358       .  S
C914        C915   1.406       .  A
C914        H919   1.083       .  S
C915        C916   1.407       .  A
C916       F1111   1.357       .  S
F917       C1110   1.357       .  S
C921        C922   1.396   1_455  A
C921        C926   1.384       .  A
C921        H928   1.084       .  S
C923        C924   1.399       .  A
C923        F930   1.357       .  S
C924        H929   1.082       .  S
C925        C926   1.414       .  A
C926        F927   1.357       .  S
C931        C936   1.405       .  A
C931        H938   1.083       .  S
C932       C1321   1.407       .  A
C933       C1320   1.407       .  A
C933        C934   1.402   1_455  A
C933        F940   1.357       .  S
C934       C1323   1.405   1_655  A
C934        H939   1.083       .  S
C935       C1322   1.406       .  A
C936        F937   1.355       .  S
C941        C942   1.401       .  A
C941        C946   1.397       .  A
C941        H948   1.084       .  S
C942        C943   1.408       .  A
C943        C944   1.405       .  A
C943        F950   1.357       .  S
C944        C945   1.408       .  A
C944        H949   1.081       .  S
C945        C946   1.416       .  A
C946        F947   1.356       .  S
C951        C952   1.407       .  A
C951        C956   1.408       .  A
C951        H958   1.083       .  S
C952        C953   1.409       .  A
C953        C954   1.395       .  A
C953        F960   1.358       .  S
C954        C955   1.407       .  A
C954        H959   1.082       .  S
C955        C956   1.410       .  A
C956        F957   1.356       .  S
C961        C962   1.409       .  A
C961        C966   1.409       .  A
C961        H968   1.083       .  S
C962        C963   1.418       .  A
C963        C964   1.400       .  A
C963        F970   1.357       .  S
C964        C965   1.397       .  A
C964        H969   1.083       .  S
C965        C966   1.409       .  A
C966        F967   1.358       .  S
N971        C975   1.369       .  A
N971        C972   1.372       .  A
N971       C1139   1.456       .  S
C972        C973   1.388       .  A
C972       C1149   1.509       .  S
C973        C974   1.363       .  A
C973        H976   1.081       .  S
C974        C975   1.374       .  A
C974        H977   1.080       .  S
C975       C1159   1.489       .  S
Zn978       O994   2.047   1_455  S
Zn978      O1370   1.916       .  S
Zn979       O984   2.009       .  S
Zn979      O1374   2.054       .  S
Zn979       O990   2.012       .  S
Zn980       O991   1.965       .  S
Zn980       O982   1.912       .  S
Zn981       O989   2.067       .  S
Zn981       O992   2.053       .  S
Zn981      O1381   2.018       .  S
Zn981       O982   1.947       .  S
O982      Zn1366   1.913       .  S
O983        C995   1.271       .  A
O984        C996   1.272       .  A
O985        C997   1.282   1_455  A
O986      Zn1367   2.017       .  S
O986        C995   1.277       .  A
O987       C1385   1.278       .  A
O988        C996   1.284       .  A
O989        C998   1.281       .  A
O991        C998   1.268       .  A
O992        C999   1.281       .  A
O993      Zn1369   2.025       .  S
O993       C1000   1.274       .  A
O994       C1000   1.280       .  A
C995       C1106   1.472       .  S
C996       C1156   1.504       .  S
C997       C1126   1.476       .  S
C997       O1375   1.281       .  A
C998       C1099   1.481       .  S
C999       C1116   1.483       .  S
C1000      C1146   1.490       .  S
N1001      C1005   1.361   1_554  A
N1001      C1002   1.367   1_554  A
C1002      C1003   1.381       .  A
C1002      C1109   1.483       .  S
C1003      C1004   1.356       .  A
C1003      H1006   1.080       .  S
C1004      C1005   1.370       .  A
C1004      H1007   1.072       .  S
C1005      C1096   1.470       .  S
N1008      C1012   1.373       .  A
C1009      C1010   1.375       .  A
C1009      C1079   1.476   1_565  S
C1010      H1013   1.081       .  S
C1011      C1012   1.389       .  A
C1011      H1014   1.081       .  S
C1012      C1066   1.509       .  S
Zn1015     O1020   2.009       .  S
Zn1015     O1024   2.012       .  S
Zn1015     O1031   2.045       .  S
Zn1015     O1019   1.901       .  S
Zn1016     O1021   1.977       .  S
Zn1016     O1023   2.063       .  S
Zn1016     O1027   2.022       .  S
Zn1016     O1019   1.909       .  S
Zn1017     O1022   2.050       .  S
Zn1017     O1025   2.089       .  S
Zn1017     O1028   2.018       .  S
Zn1017     O1019   1.933       .  S
Zn1018     O1026   2.051       .  S
Zn1018     O1029   2.046       .  S
Zn1018     O1030   2.022       .  S
Zn1018     O1019   1.917       .  S
O1020      C1032   1.272       .  A
O1021      C1033   1.269       .  A
O1022      C1034   1.284       .  A
O1023      C1032   1.280       .  A
O1024      C1034   1.280       .  A
O1025      C1033   1.284       .  A
O1026      C1035   1.281       .  A
O1027      C1036   1.281       .  A
O1028      C1035   1.274       .  A
O1029      C1036   1.282       .  A
O1030      C1037   1.274       .  A
O1031      C1037   1.280       .  A
C1032      C1076   1.496       .  S
C1033      C1056   1.496       .  S
C1034      C1089   1.484       .  S
C1035      C1069   1.489       .  S
C1036      C1136   1.487       .  S
C1037      C1049   1.483       .  S
N1038      C1430   1.366       .  A
C1039      C1040   1.375   1_655  A
C1039      C1059   1.479       .  S
C1040      H1043   1.082       .  S
C1041      C1042   1.382       .  A
C1041      H1044   1.072       .  S
C1042      N1426   1.370       .  A
C1042      C1046   1.513       .  S
C1045      C1046   1.413       .  A
C1045      C1050   1.396   1_565  A
C1045      H1052   1.079       .  S
C1046      C1047   1.417   1_565  A
C1047      C1048   1.406       .  A
C1047      F1054   1.354       .  S
C1048      C1049   1.404       .  A
C1048      H1053   1.083       .  S
C1049      C1050   1.401       .  A
C1050      F1051   1.358       .  S
C1055      C1056   1.406       .  A
C1055      C1060   1.408       .  A
C1055      H1062   1.082       .  S
C1056      C1057   1.416       .  A
C1057      C1058   1.396       .  A
C1057      F1064   1.358       .  S
C1058      C1059   1.400       .  A
C1058      H1063   1.084       .  S
C1059      C1060   1.406       .  A
C1060      F1061   1.357       .  S
C1065      C1066   1.412       .  A
C1065      C1070   1.398       .  A
C1065      H1072   1.081       .  S
C1066      C1067   1.413       .  A
C1067      C1068   1.406       .  A
C1067      F1074   1.354       .  S
C1068      C1069   1.408       .  A
C1068      H1073   1.083       .  S
C1069      C1070   1.404       .  A
C1070      F1071   1.358       .  S
C1075      C1076   1.406       .  A
C1075      C1080   1.402       .  A
C1075      H1082   1.083       .  S
C1076      C1077   1.416       .  A
C1077      C1078   1.403       .  A
C1077      F1084   1.357       .  S
C1078      C1079   1.400       .  A
C1078      H1083   1.083       .  S
C1079      C1080   1.406       .  A
C1080      F1081   1.356       .  S
C1085      C1086   1.410       .  A
C1085      C1090   1.405       .  A
C1085      H1092   1.079       .  S
C1086      C1087   1.414       .  A
C1087      C1088   1.394       .  A
C1087      F1094   1.356       .  S
C1088      C1089   1.402       .  A
C1088      H1093   1.084       .  S
C1089      C1090   1.407       .  A
C1090      F1091   1.357       .  S
C1095      C1096   1.397   1_554  A
C1095      C1100   1.391   1_554  A
C1095      H1102   1.084       .  S
C1096      C1097   1.407       .  A
C1097      C1098   1.402       .  A
C1097      F1104   1.356       .  S
C1098      C1099   1.404       .  A
C1098      H1103   1.083       .  S
C1099      C1100   1.412       .  A
C1100      F1101   1.358   1_556  S
C1105      C1106   1.407       .  A
C1105      C1110   1.407       .  A
C1105      H1112   1.083       .  S
C1106      C1107   1.402       .  A
C1107      C1108   1.388       .  A
C1107      F1114   1.359       .  S
C1108      C1109   1.405       .  A
C1108      H1113   1.083       .  S
C1109      C1110   1.408       .  A
C1115      C1116   1.401   1_455  A
C1115      C1120   1.393       .  A
C1115      H1122   1.084       .  S
C1117      C1118   1.407       .  A
C1117      F1124   1.357       .  S
C1118      H1123   1.079       .  S
C1119      C1120   1.414   1_655  A
C1120      F1121   1.356       .  S
C1125      C1130   1.407       .  A
C1125      H1132   1.083       .  S
C1126      C1515   1.402       .  A
C1127      C1514   1.405   1_565  A
C1127      C1128   1.394       .  A
C1127      F1134   1.358       .  S
C1128      C1517   1.407       .  A
C1128      H1133   1.082       .  S
C1129      C1516   1.410       .  A
C1130      F1131   1.352       .  S
C1135      C1136   1.403       .  A
C1135      C1140   1.396       .  A
C1135      H1142   1.084       .  S
C1136      C1137   1.408       .  A
C1137      C1138   1.406       .  A
C1137      F1144   1.357       .  S
C1138      C1139   1.410       .  A
C1138      H1143   1.080       .  S
C1139      C1140   1.415       .  A
C1140      F1141   1.356       .  S
C1145      C1146   1.408       .  A
C1145      C1150   1.409       .  A
C1145      H1152   1.083       .  S
C1146      C1147   1.404       .  A
C1147      C1148   1.397       .  A
C1147      F1154   1.358       .  S
C1148      C1149   1.411       .  A
C1148      H1153   1.081       .  S
C1149      C1150   1.413       .  A
C1150      F1151   1.355       .  S
C1155      C1156   1.408       .  A
C1155      C1160   1.409       .  A
C1155      H1162   1.083       .  S
C1156      C1157   1.417       .  A
C1157      C1158   1.402       .  A
C1157      F1164   1.357       .  S
C1158      C1159   1.401       .  A
C1158      H1163   1.084       .  S
C1159      C1160   1.409       .  A
C1160      F1161   1.356       .  S
N1165      C1169   1.359       .  A
N1165      C1166   1.356       .  A
N1165      C1333   1.440       .  S
C1166      C1167   1.369       .  A
C1166      C1343   1.471       .  S
C1167      C1168   1.361       .  A
C1167      H1170   1.068       .  S
C1168      C1169   1.376       .  A
C1168      H1171   1.082       .  S
C1169      C1353   1.466       .  S
Zn1172     O1375   2.023       .  S
Zn1172     O1188   2.029       .  S
Zn1173     O1178   1.976   1_545  S
Zn1173     O1184   1.990       .  S
Zn1174     O1373   2.045       .  S
Zn1174     O1185   2.013       .  S
Zn1174     O1176   1.931   1_565  S
Zn1175     O1183   2.077   1_545  S
Zn1175     O1186   2.017   1_545  S
Zn1175     O1176   1.943   1_655  S
O1177      C1189   1.275       .  A
O1178      C1190   1.267       .  A
O1179     Zn1368   2.041   1_554  S
O1179      C1191   1.283   1_565  A
O1180      C1189   1.281       .  A
O1181     Zn1366   2.031   1_554  S
O1182      C1190   1.278       .  A
O1183      C1192   1.283       .  A
O1185      C1192   1.275   1_455  A
O1186      C1193   1.279   1_565  A
O1187      C1194   1.273       .  A
O1188      C1194   1.280       .  A
C1189      C1300   1.487       .  S
C1190      C1350   1.480       .  S
C1191      C1320   1.477   1_545  S
C1192      C1293   1.500       .  S
C1193      C1310   1.490       .  S
C1194      C1340   1.479       .  S
N1195      C1199   1.370       .  A
N1195      C1196   1.372       .  A
N1195      C1474   1.454       .  S
C1196      C1197   1.381       .  A
C1196      C1303   1.513       .  S
C1197      C1198   1.363       .  A
C1197      H1200   1.072       .  S
C1198      C1199   1.378       .  A
C1198      H1201   1.082       .  S
C1199      C1290   1.493       .  S
N1202      C1206   1.375       .  A
C1203      C1204   1.377       .  A
C1203      C1273   1.481       .  S
C1204      H1207   1.083       .  S
C1205      C1206   1.383       .  A
C1205      H1208   1.075       .  S
C1206      C1260   1.519       .  S
Zn1209     O1214   2.012       .  S
Zn1209     O1218   2.002       .  S
Zn1209     O1225   2.030       .  S
Zn1209     O1213   1.932       .  S
Zn1210     O1215   2.025       .  S
Zn1210     O1217   2.057       .  S
Zn1210     O1221   2.019       .  S
Zn1210     O1213   1.940       .  S
Zn1211     O1216   2.058       .  S
Zn1211     O1219   2.081       .  S
Zn1211     O1222   2.031       .  S
Zn1211     O1213   1.947       .  S
Zn1212     O1220   2.054       .  S
Zn1212     O1223   2.033       .  S
Zn1212     O1224   2.036       .  S
Zn1212     O1213   1.948       .  S
O1214      C1226   1.271       .  A
O1215      C1227   1.273       .  A
O1216      C1228   1.283       .  A
O1217      C1226   1.279       .  A
O1218      C1228   1.277       .  A
O1219      C1227   1.283       .  A
O1220      C1229   1.281       .  A
O1221      C1230   1.280       .  A
O1222      C1229   1.276       .  A
O1223      C1230   1.280       .  A
O1224      C1231   1.273       .  A
O1225      C1231   1.276       .  A
C1226      C1270   1.489       .  S
C1227      C1250   1.494       .  S
C1228      C1283   1.485       .  S
C1229      C1263   1.493       .  S
C1230      C1330   1.479       .  S
C1231      C1243   1.488       .  S
C1233      C1234   1.384       .  A
C1233      C1253   1.502   1_545  S
C1234      H1237   1.081       .  S
C1235      C1236   1.378       .  A
C1235      H1238   1.072       .  S
C1236      C1240   1.501       .  S
C1239      C1240   1.409       .  A
C1239      C1244   1.395       .  A
C1239      H1246   1.081       .  S
C1240      C1241   1.410       .  A
C1241      C1242   1.409       .  A
C1241      F1248   1.357       .  S
C1242      C1243   1.409       .  A
C1242      H1247   1.083       .  S
C1243      C1244   1.405       .  A
C1244      F1245   1.358       .  S
C1249      C1250   1.402       .  A
C1249      C1254   1.402       .  A
C1249      H1256   1.083       .  S
C1250      C1251   1.413       .  A
C1251      C1252   1.410       .  A
C1251      F1258   1.357       .  S
C1252      C1253   1.406       .  A
C1252      H1257   1.081       .  S
C1253      C1254   1.414       .  A
C1254      F1255   1.358   1_565  S
C1259      C1260   1.414       .  A
C1259      C1264   1.398       .  A
C1259      H1266   1.078       .  S
C1260      C1261   1.417       .  A
C1261      C1262   1.408       .  A
C1261      F1268   1.354       .  S
C1262      C1263   1.407       .  A
C1262      H1267   1.083       .  S
C1263      C1264   1.403       .  A
C1264      F1265   1.358       .  S
C1269      C1270   1.402       .  A
C1269      C1274   1.399       .  A
C1269      H1276   1.083       .  S
C1270      C1271   1.414       .  A
C1271      C1272   1.407       .  A
C1271      F1278   1.358       .  S
C1272      C1273   1.403       .  A
C1272      H1277   1.083       .  S
C1273      C1274   1.408       .  A
C1274      F1275   1.358       .  S
C1279      C1280   1.409       .  A
C1279      C1284   1.406       .  A
C1279      H1286   1.078       .  S
C1280      N1389   1.451       .  S
C1280      C1281   1.410       .  A
C1281      C1282   1.393       .  A
C1281      F1288   1.356       .  S
C1282      C1283   1.404       .  A
C1282      H1287   1.084       .  S
C1283      C1284   1.407       .  A
C1284      F1285   1.357       .  S
C1289      C1290   1.402       .  A
C1289      C1294   1.399       .  A
C1289      H1296   1.084       .  S
C1290      C1291   1.411       .  A
C1291      C1292   1.407       .  A
C1291      F1298   1.353       .  S
C1292      C1293   1.407       .  A
C1292      H1297   1.083       .  S
C1293      C1294   1.415       .  A
C1294      F1295   1.357       .  S
C1299      C1300   1.406       .  A
C1299      C1304   1.408       .  A
C1299      H1306   1.083       .  S
C1300      C1301   1.402       .  A
C1301      C1302   1.399       .  A
C1301      F1308   1.358       .  S
C1302      C1303   1.414       .  A
C1302      H1307   1.080       .  S
C1303      C1304   1.414       .  A
C1304      F1499   1.354       .  S
F1305      C1498   1.356       .  S
C1309      C1310   1.406   1_455  A
C1309      C1314   1.408   1_455  A
C1309      H1316   1.083       .  S
C1311      C1312   1.408       .  A
C1311      F1318   1.357       .  S
C1312      H1317   1.082       .  S
C1313      C1314   1.411       .  A
C1314      F1315   1.353   1_655  S
C1319      C1324   1.404       .  A
C1319      H1326   1.083       .  S
C1321      C1322   1.401       .  A
C1321      F1328   1.358       .  S
C1322      H1327   1.080       .  S
C1324      F1325   1.350       .  S
C1329      C1330   1.403       .  A
C1329      C1334   1.393       .  A
C1329      H1336   1.084       .  S
C1330      C1331   1.409       .  A
C1331      C1332   1.403       .  A
C1331      F1338   1.357       .  S
C1332      C1333   1.403       .  A
C1332      H1337   1.083       .  S
C1333      C1334   1.407       .  A
C1334      F1335   1.357       .  S
C1339      C1340   1.406       .  A
C1339      C1344   1.403       .  A
C1339      H1346   1.083       .  S
C1340      C1341   1.406       .  A
C1341      C1342   1.394       .  A
C1341      F1348   1.358       .  S
C1342      C1343   1.401       .  A
C1342      H1347   1.084       .  S
C1343      C1344   1.405       .  A
C1344      F1345   1.358       .  S
C1349      C1350   1.402       .  A
C1349      C1354   1.394       .  A
C1349      H1356   1.083       .  S
C1350      C1351   1.414       .  A
C1351      C1352   1.398       .  A
C1351      F1358   1.357       .  S
C1352      C1353   1.398       .  A
C1352      H1357   1.084       .  S
C1353      C1354   1.405       .  A
C1354      F1355   1.358       .  S
N1359      C1363   1.358       .  A
N1359      C1360   1.360       .  A
N1359      C1527   1.448       .  S
C1360      C1361   1.380       .  A
C1360      C1537   1.480       .  S
C1361      C1362   1.364       .  A
C1361      H1364   1.081       .  S
C1362      C1363   1.376       .  A
C1362      H1365   1.081       .  S
C1363      C1547   1.468       .  S
Zn1366     O1382   2.013       .  S
Zn1367     O1372   1.981   1_545  S
Zn1367     O1378   2.000       .  S
Zn1368     O1379   2.005   1_455  S
Zn1368     O1370   1.932   1_565  S
Zn1369     O1377   2.070   1_545  S
Zn1369     O1380   2.039   1_545  S
Zn1369     O1370   1.939   1_655  S
O1371      C1383   1.269       .  A
O1372      C1384   1.268       .  A
O1373      C1385   1.282   1_565  A
O1374      C1383   1.279       .  A
O1376      C1384   1.278       .  A
O1377      C1386   1.282       .  A
O1379      C1386   1.274       .  A
O1380      C1387   1.282   1_665  A
O1381      C1388   1.274       .  A
O1382      C1388   1.279       .  A
C1383      C1494   1.479       .  S
C1384      C1544   1.485       .  S
C1385      C1514   1.485       .  S
C1386      C1487   1.497       .  S
C1387      C1504   1.480       .  S
C1388      C1534   1.474       .  S
N1389      C1393   1.367       .  A
N1389      C1390   1.371   1_554  A
C1390      C1391   1.381       .  A
C1390      C1497   1.501       .  S
C1391      C1392   1.353       .  A
C1391      H1394   1.069       .  S
C1392      C1393   1.376   1_556  A
C1392      H1395   1.083       .  S
C1393      C1484   1.480       .  S
N1396      C1400   1.363   1_545  A
C1397      C1398   1.375       .  A
C1397      C1467   1.477       .  S
C1398      H1401   1.081       .  S
C1399      C1400   1.367       .  A
C1399      H1402   1.068       .  S
C1400      C1454   1.477       .  S
Zn1403     O1408   1.979       .  S
Zn1403     O1412   1.991       .  S
Zn1403     O1419   2.009       .  S
Zn1403     O1407   1.893       .  S
Zn1404     O1409   2.000       .  S
Zn1404     O1411   2.081       .  S
Zn1404     O1415   2.030       .  S
Zn1404     O1407   1.916       .  S
Zn1405     O1410   2.046       .  S
Zn1405     O1413   2.078       .  S
Zn1405     O1416   2.030       .  S
Zn1405     O1407   1.938       .  S
Zn1406     O1414   2.045       .  S
Zn1406     O1417   2.040       .  S
Zn1406     O1418   2.027       .  S
Zn1406     O1407   1.921       .  S
O1408      C1420   1.269       .  A
O1409      C1421   1.273       .  A
O1410      C1422   1.280       .  A
O1411      C1420   1.282       .  A
O1412      C1422   1.276       .  A
O1413      C1421   1.283       .  A
O1414      C1423   1.282       .  A
O1415      C1424   1.282       .  A
O1416      C1423   1.277       .  A
O1417      C1424   1.282       .  A
O1418      C1425   1.272       .  A
O1419      C1425   1.274       .  A
C1420      C1464   1.494       .  S
C1421      C1444   1.493       .  S
C1422      C1477   1.475       .  S
C1423      C1457   1.489       .  S
C1424      C1524   1.480       .  S
C1425      C1437   1.481       .  S
C1427      C1428   1.379       .  A
C1427      C1447   1.485   1_455  S
C1428      H1431   1.080       .  S
C1429      C1430   1.380       .  A
C1429      H1432   1.076       .  S
C1430      C1434   1.491       .  S
C1433      C1434   1.405       .  A
C1433      C1438   1.388       .  A
C1433      H1440   1.082       .  S
C1434      C1435   1.409       .  A
C1435      C1436   1.409       .  A
C1435      F1442   1.357       .  S
C1436      C1437   1.409       .  A
C1436      H1441   1.083       .  S
C1437      C1438   1.404       .  A
C1438      F1439   1.358       .  S
C1443      C1444   1.407       .  A
C1443      C1448   1.406       .  A
C1443      H1450   1.083       .  S
C1444      C1445   1.413       .  A
C1445      C1446   1.397       .  A
C1445      F1452   1.358       .  S
C1446      C1447   1.402       .  A
C1446      H1451   1.084       .  S
C1447      C1448   1.408       .  A
C1448      F1449   1.357       .  S
C1453      C1454   1.403       .  A
C1453      C1458   1.398       .  A
C1453      H1460   1.084       .  S
C1454      C1455   1.405       .  A
C1455      C1456   1.404       .  A
C1455      F1462   1.357   1_565  S
C1456      C1457   1.408       .  A
C1456      H1461   1.083       .  S
C1457      C1458   1.408       .  A
C1458      F1459   1.357       .  S
C1463      C1464   1.406       .  A
C1463      C1468   1.405       .  A
C1463      H1470   1.083       .  S
C1464      C1465   1.417       .  A
C1465      C1466   1.398       .  A
C1465      F1472   1.358       .  S
C1466      C1467   1.397       .  A
C1466      H1471   1.084       .  S
C1467      C1468   1.408       .  A
C1468      F1469   1.357       .  S
C1473      C1474   1.411       .  A
C1473      C1478   1.405       .  A
C1473      H1480   1.077       .  S
C1474      C1475   1.415       .  A
C1475      C1476   1.390       .  A
C1475      F1482   1.356       .  S
C1476      C1477   1.399       .  A
C1476      H1481   1.084       .  S
C1477      C1478   1.404       .  A
C1478      F1479   1.357       .  S
C1483      C1484   1.402       .  A
C1483      C1488   1.396       .  A
C1483      H1490   1.084       .  S
C1484      C1485   1.405   1_554  A
C1485      C1486   1.407       .  A
C1485      F1492   1.355       .  S
C1486      C1487   1.408       .  A
C1486      H1491   1.083       .  S
C1487      C1488   1.414   1_556  A
C1488      F1489   1.357       .  S
C1493      C1494   1.409       .  A
C1493      C1498   1.408       .  A
C1493      H1500   1.083       .  S
C1494      C1495   1.399       .  A
C1495      C1496   1.393       .  A
C1495      F1502   1.358       .  S
C1496      C1497   1.412       .  A
C1496      H1501   1.080       .  S
C1497      C1498   1.410       .  A
C1503      C1504   1.400       .  A
C1503      C1508   1.391   1_545  A
C1503      H1510   1.084       .  S
C1505      C1506   1.405       .  A
C1505      F1512   1.357       .  S
C1506      H1511   1.082       .  S
C1507      C1508   1.415       .  A
C1508      F1509   1.356       .  S
C1513      C1518   1.406       .  A
C1513      H1520   1.083       .  S
C1515      C1516   1.390       .  A
C1515      F1522   1.358       .  S
C1516      H1521   1.081       .  S
C1518      F1519   1.356       .  S
C1523      C1524   1.399       .  A
C1523      C1528   1.390       .  A
C1523      H1530   1.084       .  S
C1524      C1525   1.409       .  A
C1525      C1526   1.410       .  A
C1525      F1532   1.357       .  S
C1526      C1527   1.408       .  A
C1526      H1531   1.082       .  S
C1527      C1528   1.411       .  A
C1528      F1529   1.356       .  S
C1533      C1534   1.408       .  A
C1533      C1538   1.406       .  A
C1533      H1540   1.083       .  S
C1534      C1535   1.404       .  A
C1535      C1536   1.388       .  A
C1535      F1542   1.358       .  S
C1536      C1537   1.401       .  A
C1536      H1541   1.083       .  S
C1537      C1538   1.409       .  A
C1538      F1539   1.357       .  S
C1543      C1544   1.405       .  A
C1543      C1548   1.400       .  A
C1543      H1550   1.083       .  S
C1544      C1545   1.415       .  A
C1545      C1546   1.397       .  A
C1545      F1552   1.357       .  S
C1546      C1547   1.397       .  A
C1546      H1551   1.084       .  S
C1547      C1548   1.406       .  A
C1548      F1549   1.357       .  S
