geometry optimzed in LAMMPS
_audit_creation_date              2020-11-30 
_audit_creation_method            'lammps2cif' 
_symmetry_space_group_name_H-M    'P1' 
_symmetry_Int_Tables_number       1 
_symmetry_cell_setting            triclinic 
loop_ 
_symmetry_equiv_pos_as_xyz 
  x,y,z 
_cell_length_a                    47.503039679886754 
_cell_length_b                    47.35924207905009 
_cell_length_c                    47.40884626503112 
_cell_angle_alpha                 89.96998184848125 
_cell_angle_beta                  89.96778830012263 
_cell_angle_gamma                 90.03750824595843 
loop_ 
_atom_site_label 
_atom_site_type_symbol 
_atom_site_fract_x 
_atom_site_fract_y 
_atom_site_fract_z 
_atom_site_charge 
C1          C  0.68594118  0.68605715  0.85111691     0.03590
C2          C  0.66230650  0.69870434  0.83869938    -0.12560
C3          C  0.65123679  0.68839150  0.81322011     0.01090
C4          C  0.66395276  0.66486824  0.80039709    -0.11090
C5          C  0.68730366  0.65155946  0.81280936     0.03580
C6          C  0.69772507  0.66201498  0.83849769    -0.10510
H7          H  0.65300079  0.71710117  0.84850412     0.09170
H8          H  0.65629494  0.65758248  0.78015192     0.06700
H9          H  0.71532254  0.65166039  0.84866670     0.06550
C10         C  0.68820625  0.85227136  0.61233355     0.03590
C11         C  0.66378106  0.84097561  0.62478106    -0.12560
C12         C  0.65103652  0.85408050  0.64817696     0.01090
C13         C  0.66276262  0.87933758  0.65849862    -0.11090
C14         C  0.68738639  0.89049109  0.64664990     0.03580
C15         C  0.69992481  0.87709761  0.62351665    -0.10510
H16         H  0.65497849  0.82161792  0.61645939     0.09170
H17         H  0.65313182  0.89025608  0.67608378     0.06700
H18         H  0.71932880  0.88550508  0.61488159     0.06550
C19         C  0.85149531  0.65128556  0.64780099     0.03590
C20         C  0.83932359  0.66288446  0.62337696    -0.12560
C21         C  0.85095261  0.68701681  0.61081893     0.01090
C22         C  0.87524971  0.69922116  0.62225919    -0.11090
C23         C  0.88769129  0.68808387  0.64669068     0.03580
C24         C  0.87586634  0.66384330  0.65907065    -0.10510
H25         H  0.82011114  0.65397123  0.61485737     0.09170
H26         H  0.88431462  0.71757260  0.61205256     0.06700
H27         H  0.88532885  0.65503174  0.67788478     0.06550
C28         C  0.85319016  0.85367829  0.85085304     0.03590
C29         C  0.84284081  0.87909490  0.83960508    -0.12560
C30         C  0.85316967  0.88991070  0.81398479     0.01090
C31         C  0.87610535  0.87630689  0.80105796    -0.11090
C32         C  0.88771922  0.85157159  0.81267098     0.03580
C33         C  0.87554333  0.84001794  0.83709496    -0.10510
H34         H  0.82625582  0.89019925  0.85064216     0.09170
H35         H  0.88459503  0.88461253  0.78155575     0.06700
H36         H  0.88275243  0.81971838  0.84469753     0.06550
O37         O  0.73185626  0.76580381  0.95278424    -0.73970
O38         O  0.77319756  0.80719367  0.00870433    -0.74000
O39         O  0.77204132  0.80633092  0.95149342    -0.74050
O40         O  0.73294888  0.76684449  0.00993238    -0.74100
O41         O  0.76498021  0.73249223  0.00846228    -0.74030
O42         O  0.80641895  0.77432113  0.95281818    -0.74010
O43         O  0.80521939  0.77280870  0.00998063    -0.73990
O44         O  0.76631435  0.73384722  0.95121331    -0.74050
Ni45       Ni  0.75132088  0.78773841  0.98072009     1.25410
Ni46       Ni  0.78691872  0.75217012  0.98060746     1.25360
C47         C  0.74266023  0.74330188  0.94239899     0.88210
C48         C  0.79569796  0.79641099  0.01902823     0.88140
C49         C  0.79570640  0.79695115  0.94257780     0.88170
C50         C  0.74245954  0.74318470  0.01886831     0.88340
O51         O  0.04723534  0.77168291  0.76670448    -0.73970
O52         O  0.99042337  0.73254630  0.72495852    -0.74000
O53         O  0.04738151  0.73263107  0.72528327    -0.74050
O54         O  0.98998051  0.77194547  0.76648469    -0.74100
O55         O  0.98937960  0.80548527  0.73341879    -0.74030
O56         O  0.04844369  0.76762066  0.69379378    -0.74010
O57         O  0.99108071  0.76654329  0.69235392    -0.73990
O58         O  0.04645371  0.80672110  0.73523947    -0.74050
Ni59       Ni  0.01872402  0.75099087  0.74703717     1.25410
Ni60       Ni  0.01888280  0.78779364  0.71253533     1.25360
C61         C  0.05634924  0.79551267  0.75774915     0.88210
C62         C  0.98127089  0.74320480  0.70189489     0.88140
C63         C  0.05775418  0.74397932  0.70304406     0.88170
C64         C  0.97981236  0.79487619  0.75632989     0.88340
O65         O  0.77389764  0.99106700  0.76540713    -0.73970
O66         O  0.73436992  0.04940216  0.72612987    -0.74000
O67         O  0.73357026  0.99199393  0.72538316    -0.74050
O68         O  0.77488285  0.04823500  0.76623490    -0.74100
O69         O  0.80693934  0.04953052  0.73178820    -0.74030
O70         O  0.76728208  0.99108452  0.69253659    -0.74010
O71         O  0.76650671  0.04827883  0.69173818    -0.73990
O72         O  0.80781959  0.99212404  0.73288425    -0.74050
Ni73       Ni  0.75298186  0.02018860  0.74696548     1.25410
Ni74       Ni  0.78833997  0.02022942  0.71103898     1.25360
C75         C  0.79740157  0.98203253  0.75573270     0.88210
C76         C  0.74394810  0.05838081  0.70252555     0.88140
C77         C  0.74392757  0.98201328  0.70252836     0.88170
C78         C  0.79742896  0.05842426  0.75544222     0.88340
C79         C  0.68597021  0.68604273  0.11120089     0.03590
C80         C  0.69896757  0.66338557  0.12524212    -0.12560
C81         C  0.68633626  0.65074444  0.14892896     0.01090
C82         C  0.66119354  0.66217114  0.15957988    -0.11090
C83         C  0.64826018  0.68533276  0.14642295     0.03580
C84         C  0.66029989  0.69642233  0.12171600    -0.10510
H85         H  0.71950412  0.65622716  0.11844196     0.09170
H86         H  0.65207927  0.65344634  0.17860246     0.06700
H87         H  0.64981789  0.71361713  0.11093592     0.06550
C88         C  0.68666273  0.14942190  0.64677897     0.03590
C89         C  0.69908092  0.16256127  0.62343509    -0.12560
C90         C  0.68710009  0.18700155  0.61166296     0.01090
C91         C  0.66224675  0.19794766  0.62366427    -0.11090
C92         C  0.64958003  0.18501122  0.64725456     0.03580
C93         C  0.66195477  0.16047342  0.65843743    -0.10510
H94         H  0.71870850  0.15431237  0.61521004     0.09170
H95         H  0.65314169  0.21697116  0.61499354     0.06700
H96         H  0.65269509  0.15006561  0.67656412     0.06550
C97         C  0.18612285  0.68624825  0.60976294     0.03590
C98         C  0.16285037  0.69919290  0.62270692    -0.12560
C99         C  0.15129736  0.68824588  0.64777874     0.01090
C100        C  0.16400701  0.66452340  0.66028491    -0.11090
C101        C  0.18674460  0.65079086  0.64721721     0.03580
C102        C  0.19675833  0.66115672  0.62135479    -0.10510
H103        H  0.15403902  0.71815096  0.61353338     0.09170
H104        H  0.15678802  0.65727007  0.68070565     0.06700
H105        H  0.21330882  0.64990543  0.61041825     0.06550
C106        C  0.88993624  0.68658556  0.31462041     0.03590
C107        C  0.87780604  0.69744098  0.33937043    -0.12560
C108        C  0.85244136  0.68654638  0.35003248     0.01090
C109        C  0.83967546  0.66366248  0.33619364    -0.11090
C110        C  0.85190576  0.65177203  0.31193496     0.03580
C111        C  0.87698329  0.66346704  0.30128695    -0.10510
H112        H  0.88796539  0.71478042  0.35024419     0.09170
H113        H  0.81958515  0.65579389  0.34362347     0.06700
H114        H  0.88609757  0.65487817  0.28223874     0.06550
O115        O  0.04819818  0.80739141  0.22635705    -0.73970
O116        O  0.99155318  0.76780496  0.26812311    -0.74000
O117        O  0.04896651  0.76805464  0.26762485    -0.74050
O118        O  0.99140378  0.80719360  0.22669039    -0.74100
O119        O  0.99107015  0.77273370  0.19464934    -0.74030
O120        O  0.04850017  0.73354561  0.23561196    -0.74010
O121        O  0.99164845  0.73335174  0.23606889    -0.73990
O122        O  0.04834836  0.77295313  0.19429905    -0.74050
Ni123      Ni  0.02001467  0.78877805  0.24840285     1.25410
Ni124      Ni  0.01987532  0.75195452  0.21397986     1.25360
C125        C  0.05771451  0.79661987  0.20350709     0.88210
C126        C  0.98210666  0.74419279  0.25889067     0.88140
C127        C  0.05844551  0.74455167  0.25816294     0.88170
C128        C  0.98177010  0.79639489  0.20389020     0.88340
C129        C  0.85212606  0.88806837  0.14890236     0.03590
C130        C  0.87707820  0.87625137  0.15971439    -0.12560
C131        C  0.88982446  0.85285161  0.14665735     0.01090
C132        C  0.87810406  0.84237844  0.12156349    -0.11090
C133        C  0.85258226  0.85299579  0.11104529     0.03580
C134        C  0.83959453  0.87560381  0.12509748    -0.10510
H135        H  0.88628292  0.88493840  0.17868984     0.09170
H136        H  0.88863949  0.82550373  0.11035853     0.06700
H137        H  0.81915088  0.88284169  0.11811167     0.06550
C138        C  0.68642182  0.85176910  0.34971700     0.03590
C139        C  0.66169576  0.84033226  0.33829879    -0.12560
C140        C  0.64961296  0.85188808  0.31379364     0.01090
C141        C  0.66239107  0.87547129  0.30108193    -0.11090
C142        C  0.68687831  0.88747602  0.31256883     0.03580
C143        C  0.69850550  0.87567736  0.33711594    -0.10510
H144        H  0.65236081  0.82185144  0.34802819     0.09170
H145        H  0.65405336  0.88371026  0.28147644     0.06700
H146        H  0.71715390  0.88498486  0.34641751     0.06550
O147        O  0.77396331  0.04764243  0.19394502    -0.73970
O148        O  0.73199746  0.99103950  0.23384375    -0.74000
O149        O  0.73246379  0.04839805  0.23304480    -0.74050
O150        O  0.77356218  0.99050989  0.19455507    -0.74100
O151        O  0.80611677  0.99119642  0.22844196    -0.74030
O152        O  0.76376873  0.04750851  0.26807557    -0.74010
O153        O  0.76500825  0.99024262  0.26731354    -0.73990
O154        O  0.80529763  0.04871031  0.22893864    -0.74050
Ni155      Ni  0.75182404  0.01938851  0.21263560     1.25410
Ni156      Ni  0.78620369  0.01947322  0.24939738     1.25360
C157        C  0.79633812  0.05780059  0.20511697     0.88210
C158        C  0.74199691  0.98090982  0.25682868     0.88140
C159        C  0.74134617  0.05752361  0.25686821     0.88170
C160        C  0.79648780  0.98115932  0.20527629     0.88340
C161        C  0.38932748  0.85245151  0.64783519     0.03590
C162        C  0.37660532  0.84008262  0.62414348    -0.12560
C163        C  0.35225808  0.85193233  0.61215526     0.01090
C164        C  0.34037845  0.87612275  0.62451178    -0.11090
C165        C  0.35298491  0.88892695  0.64808207     0.03580
C166        C  0.37800751  0.87747476  0.65886734    -0.10510
H167        H  0.38531671  0.82086626  0.61536277     0.09170
H168        H  0.32066847  0.88428803  0.61644693     0.06700
H169        H  0.38858386  0.88787130  0.67622415     0.06550
O170        O  0.27383064  0.04825614  0.69222103    -0.73970
O171        O  0.23204243  0.99108745  0.73112462    -0.74000
O172        O  0.23209685  0.04860399  0.73103817    -0.74050
O173        O  0.27376543  0.99135713  0.69229358    -0.74100
O174        O  0.30545241  0.99125981  0.72701404    -0.74030
O175        O  0.26351296  0.04813838  0.76601627    -0.74010
O176        O  0.26374041  0.99125219  0.76583679    -0.73990
O177        O  0.30520622  0.04876500  0.72726356    -0.74050
Ni178      Ni  0.25175081  0.01982393  0.71047295     1.25410
Ni179      Ni  0.28566460  0.01984808  0.74772129     1.25360
C180        C  0.29624050  0.05807355  0.70353468     0.88210
C181        C  0.24108979  0.98166557  0.75479777     0.88140
C182        C  0.24102680  0.05789464  0.75479651     0.88170
C183        C  0.29642285  0.98181516  0.70334495     0.88340
C184        C  0.18523545  0.88876493  0.81103299     0.03590
C185        C  0.16051314  0.87634694  0.80052301    -0.12560
C186        C  0.14899376  0.85211360  0.81314752     0.01090
C187        C  0.16246267  0.84044512  0.83683483    -0.11090
C188        C  0.18712269  0.85258070  0.84786664     0.03580
C189        C  0.19804044  0.87701721  0.83504738    -0.10510
H190        H  0.15051503  0.88525233  0.78207010     0.09170
H191        H  0.15397364  0.82150646  0.84641235     0.06700
H192        H  0.21687251  0.88667629  0.84349748     0.06550
C193        C  0.39056508  0.68564927  0.81414576     0.03590
C194        C  0.37869311  0.69691301  0.83886073    -0.12560
C195        C  0.35318761  0.68651351  0.84968588     0.01090
C196        C  0.34002953  0.66375867  0.83605936    -0.11090
C197        C  0.35233875  0.65092823  0.81234627     0.03580
C198        C  0.37744326  0.66231916  0.80134108    -0.10510
H199        H  0.38910404  0.71425743  0.84947994     0.09170
H200        H  0.31955317  0.65676849  0.84325929     0.06700
H201        H  0.38633874  0.65346495  0.78230881     0.06550
O202        O  0.30621359  0.76707071  0.00843043    -0.73970
O203        O  0.26685856  0.80705647  0.95024117    -0.74000
O204        O  0.26592832  0.80774102  0.00745849    -0.74050
O205        O  0.30678108  0.76685363  0.95112237    -0.74100
O206        O  0.27364371  0.73345563  0.95108286    -0.74030
O207        O  0.23293906  0.77419760  0.00763396    -0.74010
O208        O  0.23330840  0.77406056  0.95051704    -0.73990
O209        O  0.27282588  0.73394735  0.00835212    -0.74050
Ni210      Ni  0.28764666  0.78835536  0.97936128     1.25410
Ni211      Ni  0.25200925  0.75272162  0.97934822     1.25360
C212        C  0.29578801  0.74408818  0.01823173     0.88210
C213        C  0.24367084  0.79705611  0.94073964     0.88140
C214        C  0.24280110  0.79756194  0.01698273     0.88170
C215        C  0.29673936  0.74368211  0.94151034     0.88340
C216        C  0.89094933  0.35345783  0.64604227     0.03590
C217        C  0.87813320  0.37650486  0.65960438    -0.12560
C218        C  0.85251688  0.38764771  0.64971473     0.01090
C219        C  0.83977123  0.37528362  0.62596040    -0.11090
C220        C  0.85296155  0.35322277  0.61123885     0.03580
C221        C  0.87894186  0.34307333  0.62106842    -0.10510
H222        H  0.88788997  0.38543718  0.67816763     0.09170
H223        H  0.81909947  0.38233786  0.61947140     0.06700
H224        H  0.88966585  0.32658878  0.60946869     0.06550
O225        O  0.99153779  0.27250049  0.69360278    -0.73970
O226        O  0.04791618  0.23257317  0.73529092    -0.74000
O227        O  0.99102826  0.23299994  0.73482011    -0.74050
O228        O  0.04866820  0.27216141  0.69389765    -0.74100
O229        O  0.04947490  0.30556485  0.72706773    -0.74030
O230        O  0.99012662  0.26774865  0.76656058    -0.74010
O231        O  0.04750879  0.26646842  0.76799769    -0.73990
O232        O  0.99250609  0.30723206  0.72534491    -0.74050
Ni233      Ni  0.01978917  0.25134775  0.71322516     1.25410
Ni234      Ni  0.01985430  0.28793754  0.74792770     1.25360
C235        C  0.98277270  0.29645965  0.70257387     0.88210
C236        C  0.05716023  0.24314662  0.75835616     0.88140
C237        C  0.98083342  0.24412080  0.75721831     0.88170
C238        C  0.05892149  0.29502407  0.70407899     0.88340
C239        C  0.85278264  0.18496658  0.85065072     0.03590
C240        C  0.84175146  0.16043394  0.83804512    -0.12560
C241        C  0.85258050  0.15043370  0.81242997     0.01090
C242        C  0.87538361  0.16435544  0.79981137    -0.11090
C243        C  0.88736205  0.18834445  0.81242604     0.03580
C244        C  0.87581608  0.19854843  0.83776775    -0.10510
H245        H  0.82406660  0.14957900  0.84759516     0.09170
H246        H  0.88344877  0.15671886  0.77983572     0.06700
H247        H  0.88445705  0.21747064  0.84713226     0.06550
C248        C  0.65023098  0.35251280  0.81312610     0.03590
C249        C  0.66151589  0.37781927  0.80267549    -0.12560
C250        C  0.68657045  0.38910390  0.81366553     0.01090
C251        C  0.69947270  0.37543680  0.83659300    -0.11090
C252        C  0.68749126  0.35107997  0.84858500     0.03580
C253        C  0.66300854  0.33958256  0.83650565    -0.10510
H254        H  0.65092357  0.38852143  0.78550842     0.09170
H255        H  0.71949267  0.38299081  0.84445548     0.06700
H256        H  0.65424261  0.32021875  0.84494662     0.06550
O257        O  0.76643608  0.30540584  0.95092309    -0.73970
O258        O  0.80604370  0.26579497  0.00928872    -0.74000
O259        O  0.80642696  0.26441018  0.95214847    -0.74050
O260        O  0.76605649  0.30676240  0.00808901    -0.74100
O261        O  0.73254877  0.27374802  0.00842579    -0.74030
O262        O  0.77283974  0.23147616  0.95285290    -0.74010
O263        O  0.77209126  0.23322494  0.01023099    -0.73990
O264        O  0.73328751  0.27199169  0.95105121    -0.74050
Ni265      Ni  0.78745426  0.28678680  0.98008339     1.25410
Ni266      Ni  0.75151154  0.25145807  0.98066056     1.25360
C267        C  0.74356153  0.29494287  0.94112227     0.88210
C268        C  0.79531724  0.24321693  0.01964122     0.88140
C269        C  0.79606408  0.24112637  0.94306582     0.88170
C270        C  0.74278972  0.29698065  0.01771438     0.88340
C271        C  0.64912605  0.35328380  0.14618121     0.03590
C272        C  0.66056024  0.34295592  0.12087718    -0.12560
C273        C  0.68624874  0.35324502  0.11032556     0.01090
C274        C  0.69921722  0.37610086  0.12408020    -0.11090
C275        C  0.68729534  0.38788087  0.14853483     0.03580
C276        C  0.66270127  0.37584031  0.15983368    -0.10510
H277        H  0.64961930  0.32638974  0.10959648     0.09170
H278        H  0.71920716  0.38405147  0.11646320     0.06700
H279        H  0.65445674  0.38383618  0.17955069     0.06550
C280        C  0.35268940  0.64935151  0.14593706     0.03590
C281        C  0.34077321  0.66218605  0.12208625    -0.12560
C282        C  0.35148642  0.68775665  0.11144627     0.01090
C283        C  0.37456737  0.70032012  0.12515736    -0.11090
C284        C  0.38747865  0.68722796  0.14843763     0.03580
C285        C  0.37655136  0.66150016  0.15841189    -0.10510
H286        H  0.32288881  0.65222305  0.11200617     0.09170
H287        H  0.38192135  0.72087106  0.11838670     0.06700
H288        H  0.38606234  0.65128997  0.17646893     0.06550
C289        C  0.65041916  0.18822271  0.31345012     0.03590
C290        C  0.66115461  0.16307367  0.30205541    -0.12560
C291        C  0.68525402  0.15019732  0.31354195     0.01090
C292        C  0.69797743  0.16247658  0.33737278    -0.11090
C293        C  0.68706580  0.18724071  0.34958693     0.03580
C294        C  0.66337934  0.19998787  0.33729180    -0.10510
H295        H  0.65113449  0.15396208  0.28367546     0.09170
H296        H  0.71684373  0.15314841  0.34608415     0.06700
H297        H  0.65526880  0.21950508  0.34592843     0.06550
C298        C  0.35240131  0.15091388  0.31255552     0.03590
C299        C  0.34008403  0.16238220  0.33695668    -0.12560
C300        C  0.35199451  0.18583330  0.35060766     0.01090
C301        C  0.37659654  0.19796083  0.33947760    -0.11090
C302        C  0.38907782  0.18729918  0.31479638     0.03580
C303        C  0.37716319  0.16332847  0.30192681    -0.10510
H304        H  0.32083057  0.15331267  0.34517064     0.09170
H305        H  0.38569420  0.21619483  0.34973464     0.06700
H306        H  0.38695967  0.15461605  0.28327570     0.06550
C307        C  0.18602508  0.85335649  0.10945353     0.03590
C308        C  0.16058789  0.84295602  0.12044568    -0.12560
C309        C  0.14994871  0.85276579  0.14628891     0.01090
C310        C  0.16363022  0.87543853  0.15967456    -0.11090
C311        C  0.18790300  0.88764308  0.14785843     0.03580
C312        C  0.19929311  0.87607318  0.12309442    -0.10510
H313        H  0.14928854  0.82673508  0.10903368     0.09170
H314        H  0.15565300  0.88344194  0.17951619     0.06700
H315        H  0.21911757  0.88409679  0.11511875     0.06550
C316        C  0.35372183  0.88981930  0.31470402     0.03590
C317        C  0.34287501  0.87814031  0.33975710    -0.12560
C318        C  0.35453523  0.85353685  0.35139983     0.01090
C319        C  0.37797577  0.84110841  0.33838321    -0.11090
C320        C  0.38947377  0.85266475  0.31369181     0.03580
C321        C  0.37700283  0.87678624  0.30180441    -0.10510
H322        H  0.32466280  0.88760037  0.34971362     0.09170
H323        H  0.38675591  0.82186854  0.34706578     0.06700
H324        H  0.38510349  0.88495414  0.28207786     0.06550
O325        O  0.30647029  0.04818870  0.23327879    -0.73970
O326        O  0.26692696  0.98997211  0.19359574    -0.74000
O327        O  0.26677762  0.04729023  0.19285777    -0.74050
O328        O  0.30695543  0.99087868  0.23446725    -0.74100
O329        O  0.27332344  0.99104953  0.26732369    -0.74030
O330        O  0.23302509  0.04722924  0.22558203    -0.74010
O331        O  0.23373471  0.98983064  0.22693980    -0.73990
O332        O  0.27312095  0.04831321  0.26642854    -0.74050
Ni333      Ni  0.28797249  0.01902906  0.21237060     1.25410
Ni334      Ni  0.25209334  0.01917483  0.24772937     1.25360
C335        C  0.29621831  0.05796753  0.25626988     0.88210
C336        C  0.24406298  0.98005094  0.20398877     0.88140
C337        C  0.24347371  0.05681444  0.20254811     0.88170
C338        C  0.29656851  0.98144707  0.25759418     0.88340
C339        C  0.35190771  0.18680580  0.61172729     0.03590
C340        C  0.34096874  0.16177849  0.62334232    -0.12560
C341        C  0.35315754  0.14965395  0.64739027     0.01090
C342        C  0.37700997  0.16220499  0.65938812    -0.11090
C343        C  0.38803344  0.18746102  0.64851226     0.03580
C344        C  0.37538468  0.19958865  0.62457302    -0.10510
H345        H  0.32243404  0.15213554  0.61415646     0.09170
H346        H  0.38681434  0.15228609  0.67747911     0.06700
H347        H  0.38308917  0.21961369  0.61666367     0.06550
C348        C  0.18495910  0.39031300  0.64690693     0.03590
C349        C  0.16122417  0.37718161  0.65870101    -0.12560
C350        C  0.15055607  0.35195962  0.64740798     0.01090
C351        C  0.16378609  0.34002167  0.62376222    -0.11090
C352        C  0.18721245  0.35316756  0.61120931     0.03580
C353        C  0.19740199  0.37852064  0.62277561    -0.10510
H354        H  0.15118743  0.38651210  0.67698347     0.09170
H355        H  0.15655659  0.31983807  0.61583708     0.06700
H356        H  0.21558359  0.38867803  0.61348924     0.06550
C357        C  0.14941382  0.35308768  0.31313067     0.03590
C358        C  0.16150096  0.37779940  0.30207364    -0.12560
C359        C  0.18675028  0.38867382  0.31300189     0.01090
C360        C  0.19945916  0.37500914  0.33599238    -0.11090
C361        C  0.18701788  0.35107064  0.34838976     0.03580
C362        C  0.16180152  0.34046220  0.33691925    -0.10510
H363        H  0.15136866  0.38848878  0.28462220     0.09170
H364        H  0.21964647  0.38239913  0.34359795     0.06700
H365        H  0.15209073  0.32195084  0.34610932     0.06550
C366        C  0.85314608  0.14982143  0.14791246     0.03590
C367        C  0.84010183  0.16288619  0.12466210    -0.12560
C368        C  0.85153970  0.18740715  0.11242369     0.01090
C369        C  0.87585276  0.19936271  0.12429074    -0.11090
C370        C  0.88907456  0.18671396  0.14751494     0.03580
C371        C  0.87805988  0.16166649  0.15877907    -0.10510
H372        H  0.82063542  0.15438207  0.11640062     0.09170
H373        H  0.88418028  0.21896533  0.11593365     0.06700
H374        H  0.88841536  0.15201290  0.17670687     0.06550
C375        C  0.85332939  0.38925985  0.31262933     0.03590
C376        C  0.84188351  0.37813889  0.33758346    -0.12560
C377        C  0.85321798  0.35372556  0.35008946     0.01090
C378        C  0.87686487  0.34096599  0.33758163    -0.11090
C379        C  0.88890295  0.35200595  0.31278451     0.03580
C380        C  0.87671180  0.37597794  0.30036020    -0.10510
H381        H  0.82351700  0.38803166  0.34679726     0.09170
H382        H  0.88550165  0.32192334  0.34671958     0.06700
H383        H  0.88502364  0.38405502  0.28068315     0.06550
O384        O  0.99145664  0.30601947  0.23410577    -0.73970
O385        O  0.04754211  0.26501519  0.19269679    -0.74000
O386        O  0.99032516  0.26593658  0.19369311    -0.74050
O387        O  0.04858647  0.30538025  0.23301646    -0.74100
O388        O  0.04690999  0.27349937  0.26762375    -0.74030
O389        O  0.99235512  0.23112176  0.22539091    -0.74010
O390        O  0.04945814  0.23319525  0.22736008    -0.73990
O391        O  0.98984431  0.27126562  0.26583598    -0.74050
Ni392      Ni  0.01948770  0.28678345  0.21216931     1.25410
Ni393      Ni  0.01964939  0.25106108  0.24773912     1.25360
C394        C  0.98090571  0.29496212  0.25642672     0.88210
C395        C  0.05825999  0.24273605  0.20367459     0.88140
C396        C  0.98180820  0.24205619  0.20303712     0.88170
C397        C  0.05719725  0.29611858  0.25688741     0.88340
C398        C  0.18666624  0.68649817  0.35062367     0.03590
C399        C  0.16326038  0.69923027  0.33778813    -0.12560
C400        C  0.15137930  0.68791665  0.31310636     0.01090
C401        C  0.16374562  0.66390420  0.30081627    -0.11090
C402        C  0.18720703  0.65084427  0.31330835     0.03580
C403        C  0.19789036  0.66182180  0.33866108    -0.10510
H404        H  0.15463102  0.71843225  0.34661592     0.09170
H405        H  0.15585252  0.65609221  0.28086386     0.06700
H406        H  0.21534482  0.65134221  0.34895091     0.06550
C407        C  0.18648787  0.14932853  0.14634693     0.03590
C408        C  0.16284119  0.16199258  0.15895481    -0.12560
C409        C  0.15020539  0.18605360  0.14706237     0.01090
C410        C  0.16180045  0.19772580  0.12243668    -0.11090
C411        C  0.18565909  0.18575435  0.10964992     0.03580
C412        C  0.19760696  0.16138760  0.12158471    -0.10510
H413        H  0.15457575  0.15356490  0.17848946     0.09170
H414        H  0.15272638  0.21674550  0.11363230     0.06700
H415        H  0.21618704  0.15228396  0.11204305     0.06550
C416        C  0.35199214  0.35243044  0.11069530     0.03590
C417        C  0.37628526  0.34024611  0.12238133    -0.12560
C418        C  0.38922312  0.35191688  0.14633374     0.01090
C419        C  0.37748062  0.37621407  0.15862404    -0.11090
C420        C  0.35276823  0.38843136  0.14776231     0.03580
C421        C  0.34042959  0.37652667  0.12356809    -0.10510
H422        H  0.38483553  0.32117561  0.11319604     0.09170
H423        H  0.38723300  0.38522712  0.17714746     0.06700
H424        H  0.32138216  0.38569094  0.11503718     0.06550
C425        C  0.18535911  0.14979986  0.81226927     0.03590
C426        C  0.16129237  0.16281149  0.80100712    -0.12560
C427        C  0.15044282  0.18760479  0.81298051     0.01090
C428        C  0.16361248  0.19914352  0.83683445    -0.11090
C429        C  0.18766669  0.18647632  0.84852382     0.03580
C430        C  0.19820883  0.16162721  0.83621650    -0.10510
H431        H  0.15133819  0.15399214  0.78243721     0.09170
H432        H  0.15534670  0.21836032  0.84602157     0.06700
H433        H  0.21681800  0.15178999  0.84493129     0.06550
C434        C  0.38952634  0.35357164  0.81251214     0.03590
C435        C  0.37658147  0.37761363  0.80097410    -0.12560
C436        C  0.35224375  0.38919060  0.81318701     0.01090
C437        C  0.34070055  0.37619044  0.83722437    -0.11090
C438        C  0.35302384  0.35190600  0.84897820     0.03580
C439        C  0.37770995  0.34106076  0.83668122    -0.10510
H440        H  0.38515920  0.38695684  0.78198755     0.09170
H441        H  0.32165833  0.38467937  0.84645501     0.06700
H442        H  0.38739725  0.32241573  0.84556058     0.06550
O443        O  0.23301955  0.26550219  0.95098557    -0.73970
O444        O  0.27238368  0.30623121  0.00848954    -0.74000
O445        O  0.27339173  0.30618584  0.95123898    -0.74050
O446        O  0.23249676  0.26599540  0.00817862    -0.74100
O447        O  0.26551546  0.23249966  0.00841350    -0.74030
O448        O  0.30644447  0.27273583  0.95151093    -0.74010
O449        O  0.30587502  0.27321559  0.00876362    -0.73990
O450        O  0.26652158  0.23249677  0.95119638    -0.74050
Ni451      Ni  0.25164099  0.28716426  0.97964785     1.25410
Ni452      Ni  0.28728107  0.25155500  0.98004422     1.25360
C453        C  0.24340354  0.24241477  0.94148969     0.88210
C454        C  0.29542519  0.29625913  0.01831001     0.88140
C455        C  0.29652027  0.29592389  0.94181620     0.88170
C456        C  0.24242357  0.24280919  0.01786068     0.88340
O457        O  0.27242259  0.54922667  0.19407653    -0.73970
O458        O  0.23377053  0.49011145  0.23301142    -0.74000
O459        O  0.23221651  0.54738317  0.23437977    -0.74050
O460        O  0.27405691  0.49194906  0.19280998    -0.74100
O461        O  0.30584006  0.49036287  0.22738345    -0.74030
O462        O  0.26669451  0.54924583  0.26624078    -0.74010
O463        O  0.26553262  0.49188416  0.26759299    -0.73990
O464        O  0.30699386  0.54761472  0.22588805    -0.74050
Ni465      Ni  0.25192558  0.51966550  0.21237911     1.25410
Ni466      Ni  0.28745291  0.51979541  0.24798837     1.25360
C467        C  0.29612808  0.55802337  0.20344058     0.88210
C468        C  0.24323068  0.48124097  0.25669511     0.88140
C469        C  0.24294963  0.55793137  0.25682605     0.88170
C470        C  0.29650510  0.48154892  0.20362415     0.88340
O471        O  0.49054596  0.27126431  0.19369876    -0.73970
O472        O  0.54804035  0.23286738  0.23525405    -0.74000
O473        O  0.49127704  0.23249566  0.23562136    -0.74050
O474        O  0.54788694  0.27173308  0.19334635    -0.74100
O475        O  0.54758385  0.30659605  0.22494408    -0.74030
O476        O  0.49102041  0.26737067  0.26722382    -0.74010
O477        O  0.54842199  0.26783626  0.26679451    -0.73990
O478        O  0.49079848  0.30618661  0.22526620    -0.74050
Ni479      Ni  0.51944226  0.25089442  0.21330528     1.25410
Ni480      Ni  0.51944361  0.28819018  0.24723909     1.25360
C481        C  0.48110012  0.29494328  0.20271469     0.88210
C482        C  0.55779070  0.24413234  0.25775582     0.88140
C483        C  0.48173727  0.24355281  0.25833577     0.88170
C484        C  0.55720349  0.29552809  0.20227068     0.88340
O485        O  0.27196036  0.23179872  0.45281223    -0.73970
O486        O  0.23194763  0.27429767  0.50853253    -0.74000
O487        O  0.23279438  0.27267012  0.45139724    -0.74050
O488        O  0.27134169  0.23319081  0.51025726    -0.74100
O489        O  0.30598055  0.26499868  0.50897243    -0.74030
O490        O  0.26602446  0.30597310  0.45180556    -0.74010
O491        O  0.26657084  0.30613413  0.50914112    -0.73990
O492        O  0.30565600  0.26465688  0.45197589    -0.74050
Ni493      Ni  0.25082686  0.25181357  0.48079655     1.25410
Ni494      Ni  0.28725349  0.28663879  0.48043779     1.25360
C495        C  0.29512292  0.24148348  0.44289638     0.88210
C496        C  0.24287648  0.29699733  0.51831256     0.88140
C497        C  0.24308237  0.29576410  0.44184007     0.88170
C498        C  0.29495861  0.24259345  0.51934953     0.88340
O499        O  0.23362913  0.76699631  0.45138057    -0.73970
O500        O  0.27342261  0.80707120  0.50930244    -0.74000
O501        O  0.27421516  0.80750687  0.45219187    -0.74050
O502        O  0.23281919  0.76663969  0.50841352    -0.74100
O503        O  0.26609966  0.73341908  0.50869697    -0.74030
O504        O  0.30706246  0.77381138  0.45223908    -0.74010
O505        O  0.30625687  0.77338373  0.50964204    -0.73990
O506        O  0.26694149  0.73380309  0.45149900    -0.74050
Ni507      Ni  0.25233293  0.78827956  0.48030570     1.25410
Ni508      Ni  0.28777303  0.75245319  0.48052534     1.25360
C509        C  0.24389317  0.74388214  0.44180174     0.88210
C510        C  0.29616536  0.79651166  0.51928464     0.88140
C511        C  0.29723171  0.79709869  0.44271139     0.88170
C512        C  0.24280421  0.74339027  0.51794112     0.88340
O513        O  0.73277877  0.26567683  0.45260827    -0.73970
O514        O  0.77374287  0.30731973  0.50863050    -0.74000
O515        O  0.77255082  0.30652380  0.45138205    -0.74050
O516        O  0.73383641  0.26672599  0.50991570    -0.74100
O517        O  0.76605782  0.23252844  0.50826991    -0.74030
O518        O  0.80717567  0.27477240  0.45265838    -0.74010
O519        O  0.80600023  0.27316808  0.50980340    -0.73990
O520        O  0.76742508  0.23395936  0.45099496    -0.74050
Ni521      Ni  0.75201651  0.28773824  0.48062641     1.25410
Ni522      Ni  0.78785546  0.25241898  0.48042491     1.25360
C523        C  0.74376736  0.24330870  0.44208582     0.88210
C524        C  0.79632093  0.29667519  0.51893042     0.88140
C525        C  0.79626483  0.29731317  0.44242870     0.88170
C526        C  0.74352053  0.24310103  0.51875781     0.88340
O527        O  0.27211678  0.49118706  0.76746257    -0.73970
O528        O  0.23198511  0.54833592  0.72698246    -0.74000
O529        O  0.23187677  0.49108837  0.72764230    -0.74050
O530        O  0.27271977  0.54853557  0.76710849    -0.74100
O531        O  0.30551445  0.54827004  0.73341270    -0.74030
O532        O  0.26462115  0.49103106  0.69385801    -0.74010
O533        O  0.26519491  0.54820845  0.69369252    -0.73990
O534        O  0.30532088  0.49097351  0.73414805    -0.74050
Ni535      Ni  0.25100844  0.51984150  0.74850562     1.25410
Ni536      Ni  0.28634995  0.51954580  0.71259389     1.25360
C537        C  0.29511709  0.48144250  0.75731093     0.88210
C538        C  0.24211051  0.55785085  0.70379314     0.87420
C539        C  0.24163473  0.48152509  0.70435188     0.88170
C540        C  0.29564634  0.55814785  0.75651793     0.88340
O541        O  0.77469576  0.49112659  0.26765680    -0.73970
O542        O  0.73238956  0.54785677  0.22878346    -0.74000
O543        O  0.73314817  0.49013407  0.22882586    -0.74050
O544        O  0.77396972  0.54811978  0.26760517    -0.74100
O545        O  0.80573094  0.54869260  0.23292146    -0.74030
O546        O  0.76465545  0.49107097  0.19390416    -0.74010
O547        O  0.76418318  0.54811990  0.19412880    -0.73990
O548        O  0.80620614  0.49105647  0.23270906    -0.74050
Ni549      Ni  0.75235370  0.51929421  0.24940182     1.25410
Ni550      Ni  0.78637105  0.51975061  0.21222444     1.25360
C551        C  0.79720765  0.48152204  0.25635762     0.88210
C552        C  0.74156742  0.55765047  0.20529755     0.88140
C553        C  0.74238926  0.48081862  0.20518159     0.88170
C554        C  0.79645902  0.55809755  0.25651775     0.88340
O555        O  0.49164169  0.30692688  0.73214121    -0.73970
O556        O  0.54837643  0.26444082  0.69343346    -0.74000
O557        O  0.49155312  0.26544719  0.69302871    -0.74050
O558        O  0.54902488  0.30599811  0.73260715    -0.74100
O559        O  0.54796808  0.27403168  0.76717654    -0.74030
O560        O  0.49042895  0.23353628  0.72764392    -0.74010
O561        O  0.54782914  0.23246052  0.72798111    -0.73990
O562        O  0.49120765  0.27500947  0.76677234    -0.74050
Ni563      Ni  0.52019650  0.28689134  0.71161832     1.25410
Ni564      Ni  0.51934280  0.25256232  0.74856993     1.25360
C565        C  0.48191191  0.29782313  0.75568172     0.88210
C566        C  0.55757175  0.24152808  0.70442561     0.88140
C567        C  0.48133267  0.24295913  0.70398675     0.88170
C568        C  0.55800878  0.29666224  0.75634117     0.88340
O569        O  0.48979693  0.80546477  0.23350604    -0.73970
O570        O  0.54840497  0.76669551  0.19424627    -0.74000
O571        O  0.49131835  0.76538152  0.19318170    -0.74050
O572        O  0.54695905  0.80674818  0.23485602    -0.74100
O573        O  0.54864119  0.77191477  0.26650247    -0.74030
O574        O  0.48969163  0.73325857  0.22756496    -0.74010
O575        O  0.54677374  0.73189796  0.22592738    -0.73990
O576        O  0.49152285  0.77338696  0.26796037    -0.74050
Ni577      Ni  0.51913960  0.78728547  0.21276663     1.25410
Ni578      Ni  0.51917134  0.75141460  0.24818804     1.25360
C579        C  0.48097764  0.79581041  0.25713255     0.88210
C580        C  0.55712594  0.74283914  0.20345951     0.88140
C581        C  0.48083271  0.74286642  0.20393025     0.88170
C582        C  0.55747061  0.79570447  0.25718261     0.88340
O583        O  0.73304981  0.77217987  0.50998449    -0.73970
O584        O  0.77244520  0.73291474  0.45134369    -0.74000
O585        O  0.77347045  0.73211683  0.50831963    -0.74050
O586        O  0.73172397  0.77320781  0.45263437    -0.74100
O587        O  0.76566600  0.80579882  0.45109757    -0.74030
O588        O  0.80532719  0.76679163  0.50953974    -0.74010
O589        O  0.80591400  0.76598887  0.45208001    -0.73990
O590        O  0.76486623  0.80683260  0.50831075    -0.74050
Ni591      Ni  0.75145213  0.75142108  0.48054776     1.25410
Ni592      Ni  0.78663717  0.78753455  0.48027312     1.25360
C593        C  0.74252617  0.79592019  0.51882537     0.88210
C594        C  0.79568213  0.74305846  0.44205512     0.88140
C595        C  0.79592520  0.74305392  0.51846191     0.88170
C596        C  0.74218932  0.79591234  0.44227738     0.88340
O597        O  0.77382637  0.54824042  0.69343022    -0.73970
O598        O  0.73299327  0.49113759  0.73335845    -0.74000
O599        O  0.73267286  0.54847728  0.73318831    -0.74050
O600        O  0.77396808  0.49115087  0.69388205    -0.74100
O601        O  0.80588179  0.49072759  0.72836986    -0.74030
O602        O  0.76576278  0.54934715  0.76654713    -0.74010
O603        O  0.76487480  0.49211916  0.76785471    -0.73990
O604        O  0.80650418  0.54827814  0.72723716    -0.74050
Ni605      Ni  0.75218199  0.51976021  0.71226833     1.25410
Ni606      Ni  0.78693301  0.52010431  0.74868918     1.25360
C607        C  0.79677834  0.55779465  0.70389141     0.88210
C608        C  0.74230680  0.48202820  0.75702599     0.88140
C609        C  0.74270823  0.55866242  0.75612992     0.88170
C610        C  0.79650190  0.48120481  0.70488690     0.88340
O611        O  0.54839567  0.80729248  0.72694128    -0.73970
O612        O  0.49166769  0.76660077  0.76732147    -0.74000
O613        O  0.54888289  0.76723256  0.76714790    -0.74050
O614        O  0.49116592  0.80661774  0.72702789    -0.74100
O615        O  0.49174660  0.77353158  0.69353714    -0.74030
O616        O  0.54884299  0.73354824  0.73425969    -0.74010
O617        O  0.49185419  0.73309961  0.73427159    -0.73990
O618        O  0.54873741  0.77401792  0.69366508    -0.74050
Ni619      Ni  0.52001195  0.78811185  0.74827298     1.25410
Ni620      Ni  0.52030043  0.75234427  0.71273624     1.25360
C621        C  0.55811297  0.79728203  0.70381253     0.88210
C622        C  0.48221565  0.74331334  0.75737942     0.88140
C623        C  0.55847284  0.74399997  0.75722948     0.88170
C624        C  0.48187003  0.79650796  0.70377250     0.88340
C625        C  0.32688231  0.35336202  0.89513294    -0.20850
C626        C  0.33942424  0.33743326  0.87341333    -0.08890
C627        C  0.33787733  0.30770966  0.87485540     0.29970
C628        C  0.32457308  0.29451218  0.89760449    -0.20850
C629        C  0.31166622  0.31048962  0.91886910    -0.08900
C630        C  0.31280162  0.34008545  0.91743445     0.29970
F631        F  0.30076459  0.35615535  0.93783968    -0.19420
H632        H  0.32795960  0.37619989  0.89489461     0.18340
H633        H  0.32346129  0.27166036  0.89807277     0.18350
F634        F  0.34795964  0.29128242  0.85369584    -0.19410
C635        C  0.45889657  0.31529167  0.79961225    -0.20850
C636        C  0.45924905  0.31345553  0.77007615    -0.08890
C637        C  0.43720032  0.32563234  0.75457581     0.29970
C638        C  0.41480119  0.33869650  0.76850637    -0.20850
C639        C  0.41420086  0.34049329  0.79814494    -0.08900
C640        C  0.43686470  0.32904290  0.81356930     0.29970
F641        F  0.43807399  0.33153513  0.84206122    -0.19420
H642        H  0.47590126  0.30629704  0.81189255     0.18340
H643        H  0.39752229  0.34678431  0.75601229     0.18350
F644        F  0.43660226  0.32372465  0.72601056    -0.19410
C645        C  0.30826578  0.41407622  0.79787964    -0.20850
C646        C  0.33782293  0.41368551  0.79977847    -0.08890
C647        C  0.35316433  0.43638515  0.78809160     0.29970
C648        C  0.33918777  0.45829001  0.77409420    -0.20850
C649        C  0.30973015  0.45849363  0.77230911    -0.08900
C650        C  0.29432149  0.43636516  0.78461454     0.29970
F651        F  0.26580276  0.43568959  0.78281346    -0.19420
H652        H  0.29584449  0.39676098  0.80613123     0.18340
H653        H  0.35136526  0.47540220  0.76505224     0.18350
F654        F  0.38158294  0.43780921  0.79069300    -0.19410
C655        C  0.18625102  0.21192258  0.89494558    -0.20850
C656        C  0.20213880  0.19984207  0.87297075    -0.08890
C657        C  0.23175362  0.20160205  0.87419720     0.29970
C658        C  0.24493085  0.21480647  0.89698732    -0.20850
C659        C  0.22897759  0.22730395  0.91850784    -0.08900
C660        C  0.19948005  0.22582740  0.91732770     0.29970
F661        F  0.18346575  0.23736139  0.93805347    -0.19420
H662        H  0.16349613  0.21062252  0.89481846     0.18340
H663        H  0.26769621  0.21616073  0.89731125     0.18350
F664        F  0.24804479  0.19181703  0.85280710    -0.19410
C665        C  0.30812599  0.33704372  0.08559938    -0.20850
C666        C  0.33768478  0.33894438  0.08618689    -0.08890
C667        C  0.35315722  0.32718689  0.06365238     0.29970
C668        C  0.33931312  0.31313061  0.04172331    -0.20850
C669        C  0.30985668  0.31133922  0.04131464    -0.08900
C670        C  0.29431252  0.32370465  0.06327817     0.29970
F671        F  0.26578836  0.32189601  0.06376547    -0.19420
H672        H  0.29560269  0.34534864  0.10278142     0.18340
H673        H  0.35160180  0.30404559  0.02474720     0.18350
F674        F  0.38158852  0.32977442  0.06240355    -0.19410
C675        C  0.32472613  0.43739205  0.20500036    -0.20850
C676        C  0.31153472  0.45850939  0.18903301    -0.08890
C677        C  0.31232227  0.45682760  0.15945701     0.29970
C678        C  0.32633803  0.43446894  0.14622061    -0.20850
C679        C  0.33917345  0.41291757  0.16216175    -0.08900
C680        C  0.33796464  0.41459377  0.19185959     0.29970
F681        F  0.34832193  0.39361496  0.20836437    -0.19420
H682        H  0.32391635  0.43800294  0.22783324     0.18340
H683        H  0.32714723  0.43407577  0.12340128     0.18350
F684        F  0.29999493  0.47702739  0.14333689    -0.19410
C685        C  0.45829499  0.33893332  0.18506513    -0.20850
C686        C  0.45842972  0.30938127  0.18715699    -0.08890
C687        C  0.43635238  0.29389400  0.17499011     0.29970
C688        C  0.41412812  0.30785964  0.16169010    -0.20850
C689        C  0.41375004  0.33751355  0.15962217    -0.08900
C690        C  0.43644747  0.35291854  0.17106487     0.29970
F691        F  0.43788579  0.38140783  0.16829811    -0.19420
H692        H  0.47535905  0.35119787  0.19399392     0.18340
H693        H  0.39681617  0.29538498  0.15360951     0.18350
F694        F  0.43559049  0.26531195  0.17706118    -0.19410
C695        C  0.20173966  0.22966916  0.08501657    -0.20850
C696        C  0.19933553  0.20005558  0.08522888    -0.08890
C697        C  0.21083583  0.18463460  0.06252943     0.29970
C698        C  0.22504211  0.19860740  0.04071865    -0.20850
C699        C  0.22726321  0.22814005  0.04067822    -0.08900
C700        C  0.21523457  0.24360734  0.06286973     0.29970
F701        F  0.21753498  0.27217061  0.06375161    -0.19420
H702        H  0.19369684  0.24213608  0.10237668     0.18340
H703        H  0.23390967  0.18638817  0.02357033     0.18350
F704        F  0.20785701  0.15617282  0.06102649    -0.19410
C705        C  0.18549030  0.60500511  0.28658072    -0.20850
C706        C  0.20141670  0.62662309  0.29923323    -0.08890
C707        C  0.23103188  0.62519451  0.29776786     0.29970
C708        C  0.24421061  0.60244411  0.28450889    -0.20850
C709        C  0.22830512  0.58103869  0.27171596    -0.08900
C710        C  0.19875722  0.58251503  0.27274964     0.29970
F711        F  0.18272249  0.56194772  0.26094192    -0.19420
H712        H  0.16271918  0.60543487  0.28753247     0.18340
H713        H  0.26698974  0.60200912  0.28348924     0.18350
F714        F  0.24735050  0.64633623  0.30809401    -0.19410
C715        C  0.19966322  0.72772707  0.41841563    -0.20850
C716        C  0.22917546  0.72869405  0.41903986    -0.08890
C717        C  0.24453180  0.71507654  0.39769801     0.29970
C718        C  0.23052910  0.70127494  0.37581260    -0.20850
C719        C  0.20093739  0.70020349  0.37500042    -0.08900
C720        C  0.18559546  0.71328656  0.39686135     0.29970
F721        F  0.15708518  0.71165183  0.39780949    -0.19420
H722        H  0.18749364  0.73775356  0.43494158     0.18340
H723        H  0.24295494  0.69195182  0.35908044     0.18350
F724        F  0.27309908  0.71602661  0.39737766    -0.19410
C725        C  0.12609215  0.20310429  0.19086541    -0.20850
C726        C  0.12604385  0.20005768  0.16136045    -0.08890
C727        C  0.10316004  0.21103951  0.14589730     0.29970
C728        C  0.08129551  0.22521548  0.15971275    -0.20850
C729        C  0.08141955  0.22799534  0.18915742    -0.08900
C730        C  0.10393062  0.21666177  0.20467442     0.29970
F731        F  0.10502172  0.21958039  0.23314217    -0.19420
H732        H  0.14360040  0.19543508  0.20330721     0.18340
H733        H  0.06394153  0.23353536  0.14745174     0.18350
F734        F  0.10149996  0.20748767  0.11754045    -0.19410
C735        C  0.95681671  0.33909455  0.27194081    -0.20850
C736        C  0.95785672  0.30951301  0.27136510    -0.08890
C737        C  0.93653610  0.29399778  0.28490551     0.29970
C738        C  0.91430024  0.30791827  0.29822813    -0.20850
C739        C  0.91315016  0.33759158  0.29897852    -0.08900
C740        C  0.93498879  0.35307449  0.28595931     0.29970
F741        F  0.93573224  0.38168982  0.28731604    -0.19420
H742        H  0.97325702  0.35142848  0.26195987     0.18340
H743        H  0.89764786  0.29533688  0.30748149     0.18350
F744        F  0.93660079  0.26533587  0.28440318    -0.19410
C745        C  0.83540880  0.41287462  0.26898382    -0.20850
C746        C  0.83981060  0.41363818  0.29831239    -0.08890
C747        C  0.83070077  0.43745211  0.31359441     0.29970
C748        C  0.81687661  0.45956798  0.29980895    -0.20850
C749        C  0.81259236  0.45865938  0.27055854    -0.08900
C750        C  0.82213471  0.43523990  0.25516920     0.29970
F751        F  0.81747361  0.43340694  0.22697584    -0.19420
H752        H  0.84171843  0.39462337  0.25676896     0.18340
H753        H  0.80978644  0.47760734  0.31192608     0.18350
F754        F  0.83562266  0.43963380  0.34170849    -0.19410
C755        C  0.80940174  0.33964573  0.37604071    -0.20850
C756        C  0.83899758  0.34039966  0.37481346    -0.08890
C757        C  0.85441310  0.32750796  0.39675738     0.29970
C758        C  0.84042887  0.31341956  0.41864290    -0.20850
C759        C  0.81091237  0.31266836  0.41961586    -0.08900
C760        C  0.79549105  0.32628901  0.39830362     0.29970
F761        F  0.76691321  0.32569768  0.39830432    -0.19420
H762        H  0.79684705  0.34880324  0.35932942     0.18340
H763        H  0.85269405  0.30341744  0.43510628     0.18350
F764        F  0.88293928  0.32894663  0.39746966    -0.19410
C765        C  0.93308980  0.24191809  0.18460711    -0.20850
C766        C  0.95864830  0.22764798  0.18839232    -0.08890
C767        C  0.96148681  0.19984551  0.17851648     0.29970
C768        C  0.93883958  0.18652531  0.16503674    -0.20850
C769        C  0.91319316  0.20081908  0.16131545    -0.08900
C770        C  0.91042964  0.22858470  0.17141068     0.29970
F771        F  0.88550903  0.24245000  0.16931725    -0.19420
H772        H  0.93051445  0.26324751  0.19246382     0.18340
H773        H  0.94132747  0.16514584  0.15731833     0.18350
F774        F  0.98631088  0.18594038  0.18127187    -0.19410
C775        C  0.10311389  0.32711721  0.31464376    -0.20850
C776        C  0.12494553  0.33953858  0.29881559    -0.08890
C777        C  0.12385530  0.33771523  0.26913193     0.29970
C778        C  0.10136622  0.32420104  0.25582811    -0.20850
C779        C  0.07991083  0.31143166  0.27165839    -0.08900
C780        C  0.08093523  0.31295106  0.30125150     0.29970
F781        F  0.06027396  0.30119872  0.31719348    -0.19420
H782        H  0.10319767  0.32835419  0.33744832     0.18340
H783        H  0.10123877  0.32285892  0.23301257     0.18350
F784        F  0.14516233  0.34775672  0.25287140    -0.19410
C785        C  0.21509668  0.29408982  0.39761147    -0.20850
C786        C  0.22850321  0.31022573  0.41846177    -0.08890
C787        C  0.22812960  0.33980355  0.41633253     0.29970
C788        C  0.21420463  0.35289143  0.39384302    -0.20850
C789        C  0.20098541  0.33677163  0.37267259    -0.08900
C790        C  0.20188076  0.30707459  0.37472067     0.29970
F791        F  0.19111415  0.29043167  0.35407524    -0.19420
H792        H  0.21560942  0.27123327  0.39858319     0.18340
H793        H  0.21366510  0.37574071  0.39308067     0.18350
F794        F  0.24064410  0.35606071  0.43629487    -0.19410
C795        C  0.20176705  0.41426514  0.26936454    -0.20850
C796        C  0.20080192  0.41300737  0.29897759    -0.08890
C797        C  0.21377482  0.43470638  0.31464024     0.29970
C798        C  0.22772390  0.45680285  0.30082269    -0.20850
C799        C  0.22844307  0.45800691  0.27124715    -0.08900
C800        C  0.21522107  0.43656423  0.25561108     0.29970
F801        F  0.21616587  0.43657184  0.22698641    -0.19420
H802        H  0.19251013  0.39762293  0.25674167     0.18340
H803        H  0.23758022  0.47325632  0.31324372     0.18350
F804        F  0.21242303  0.43497277  0.34323654    -0.19410
C805        C  0.24436940  0.32586422  0.56203915    -0.20850
C806        C  0.22841159  0.31242305  0.54110136    -0.08890
C807        C  0.19888837  0.31291453  0.54294255     0.29970
C808        C  0.18567580  0.32670832  0.56540383    -0.20850
C809        C  0.20161173  0.33972379  0.58677524    -0.08900
C810        C  0.23123706  0.33900226  0.58488416     0.29970
F811        F  0.24765306  0.34971581  0.60571930    -0.19420
H812        H  0.26715413  0.32526425  0.56128413     0.18340
H813        H  0.16289580  0.32717783  0.56608527     0.18350
F814        F  0.18279259  0.30041040  0.52285629    -0.19410
C815        C  0.20155607  0.41410849  0.69084498    -0.20850
C816        C  0.19822331  0.41474365  0.66137472    -0.08890
C817        C  0.20880029  0.43804358  0.64620095     0.29970
C818        C  0.22306881  0.45972048  0.66026893    -0.20850
C819        C  0.22635676  0.45887826  0.68965944    -0.08900
C820        C  0.21527077  0.43602467  0.70490663     0.29970
F821        F  0.21878344  0.43427929  0.73327451    -0.19420
H822        H  0.19413702  0.39621884  0.70300792     0.18340
H823        H  0.23122978  0.47739620  0.64826178     0.18350
F824        F  0.20494011  0.44013842  0.61791365    -0.19410
C825        C  0.30799804  0.20223835  0.58693545    -0.20850
C826        C  0.33755493  0.20053457  0.58745541    -0.08890
C827        C  0.35296174  0.21236541  0.56495461     0.29970
C828        C  0.33899880  0.22607798  0.54286020    -0.20850
C829        C  0.30949265  0.22766310  0.54244593    -0.08900
C830        C  0.29406404  0.21545887  0.56461146     0.29970
F831        F  0.26554998  0.21730004  0.56528801    -0.19420
H832        H  0.29560265  0.19379295  0.60416834     0.18340
H833        H  0.35123973  0.23513484  0.52581612     0.18350
F834        F  0.38143329  0.21013923  0.56395894    -0.19410
C835        C  0.43655901  0.21587635  0.70559119    -0.20850
C836        C  0.45814297  0.22814682  0.68956272    -0.08890
C837        C  0.45661744  0.22710577  0.65996315     0.29970
C838        C  0.43392578  0.21370543  0.64674256    -0.20850
C839        C  0.41213274  0.20155070  0.66276046    -0.08900
C840        C  0.41356404  0.20308851  0.69243918     0.29970
F841        F  0.39225307  0.19325474  0.70882049    -0.19420
H842        H  0.43704248  0.21700520  0.72841248     0.18340
H843        H  0.43350986  0.21264174  0.62392712     0.18350
F844        F  0.47732714  0.23851890  0.64383334    -0.19410
C845        C  0.19932065  0.08121998  0.18752562    -0.20850
C846        C  0.22881041  0.07965327  0.18726859    -0.08890
C847        C  0.24420941  0.10055286  0.17294128     0.29970
C848        C  0.23032688  0.12298169  0.15984117    -0.20850
C849        C  0.20073781  0.12473637  0.15995480    -0.08900
C850        C  0.18532659  0.10320499  0.17363678     0.29970
F851        F  0.15676359  0.10291474  0.17312069    -0.19420
H852        H  0.18705440  0.06511170  0.19814835     0.18340
H853        H  0.24294823  0.13936179  0.15013566     0.18350
F854        F  0.27278530  0.09998942  0.17257224    -0.19410
C855        C  0.30984373  0.91577434  0.30094492    -0.20850
C856        C  0.33942907  0.91423918  0.30097934    -0.08890
C857        C  0.35480197  0.93566846  0.28713822     0.29970
C858        C  0.34076230  0.95741855  0.27295520    -0.20850
C859        C  0.31126369  0.95876750  0.27301759    -0.08900
C860        C  0.29589562  0.93791608  0.28745389     0.29970
F861        F  0.26731396  0.93825340  0.28756866    -0.19420
H862        H  0.29731779  0.89941790  0.31082476     0.18340
H863        H  0.35298507  0.97350605  0.26225114     0.18350
F864        F  0.38336339  0.93603316  0.28775762    -0.19410
C865        C  0.41253060  0.83408819  0.27007684    -0.20850
C866        C  0.41339662  0.83850032  0.29936902    -0.08890
C867        C  0.43690555  0.82881049  0.31469357     0.29970
C868        C  0.45877998  0.81462892  0.30092432    -0.20850
C869        C  0.45787667  0.81050329  0.27166018    -0.08900
C870        C  0.43460609  0.82038840  0.25629055     0.29970
F871        F  0.43274799  0.81589416  0.22806810    -0.19420
H872        H  0.39448222  0.84083587  0.25786984     0.18340
H873        H  0.47670053  0.80734212  0.31302153     0.18350
F874        F  0.43908084  0.83365027  0.34282584    -0.19410
C875        C  0.33510752  0.81021980  0.37411276    -0.20850
C876        C  0.34071397  0.83931609  0.37559262    -0.08890
C877        C  0.33212889  0.85446954  0.39965853     0.29970
C878        C  0.31776245  0.84071237  0.42150167    -0.20850
C879        C  0.31234317  0.81164297  0.41989189    -0.08900
C880        C  0.32119409  0.79644996  0.39608675     0.29970
F881        F  0.31537193  0.76849032  0.39359432    -0.19420
H882        H  0.34100369  0.79820208  0.35559575     0.18340
H883        H  0.31123742  0.85263459  0.43987108     0.18350
F884        F  0.33810808  0.88237202  0.40229572    -0.19410
C885        C  0.22509426  0.95757689  0.16043972    -0.20850
C886        C  0.22962447  0.95662602  0.18964096    -0.08890
C887        C  0.22045177  0.93301063  0.20505237     0.29970
C888        C  0.20697452  0.91065723  0.19136081    -0.20850
C889        C  0.20216779  0.91158556  0.16213132    -0.08900
C890        C  0.21119032  0.93541518  0.14677429     0.29970
F891        F  0.20588710  0.93762399  0.11872633    -0.19420
H892        H  0.23184860  0.97576431  0.14831890     0.18340
H893        H  0.20063112  0.89239020  0.20357277     0.18350
F894        F  0.22540428  0.93114303  0.23319342    -0.19410
C895        C  0.32562003  0.10506386  0.31374755    -0.20850
C896        C  0.33878873  0.12654203  0.29792625    -0.08890
C897        C  0.33786589  0.12485220  0.26821190     0.29970
C898        C  0.32459349  0.10209966  0.25496803    -0.20850
C899        C  0.31106341  0.08110955  0.27085228    -0.08900
C900        C  0.31151866  0.08283690  0.30041320     0.29970
F901        F  0.29883840  0.06274778  0.31643325    -0.19420
H902        H  0.32623638  0.10538605  0.33657283     0.18340
H903        H  0.32404448  0.10140156  0.23212841     0.18350
F904        F  0.34855871  0.14574131  0.25178584    -0.19410
C905        C  0.43827293  0.24485955  0.28761955    -0.20850
C906        C  0.45918735  0.22897810  0.27410252    -0.08890
C907        C  0.45754767  0.19934818  0.27480926     0.29970
C908        C  0.43528758  0.18597716  0.28881159    -0.20850
C909        C  0.41376650  0.20181654  0.30171384    -0.08900
C910        C  0.41554611  0.23157710  0.30084884     0.29970
F911        F  0.39465746  0.24802238  0.31138578    -0.19420
H912        H  0.43888266  0.26772245  0.28690596     0.18340
H913        H  0.43487424  0.16312543  0.28942477     0.18350
F914        F  0.47760800  0.18329140  0.26222451    -0.19410
C915        C  0.30809422  0.20173073  0.37518601    -0.20850
C916        C  0.33758011  0.19885116  0.37526969    -0.08890
C917        C  0.35286452  0.20932356  0.39852630     0.29970
C918        C  0.33893947  0.22320633  0.42051548    -0.20850
C919        C  0.30956608  0.22606977  0.42018522    -0.08900
C920        C  0.29417105  0.21490392  0.39752592     0.29970
F921        F  0.26577027  0.21790914  0.39633699    -0.19420
H922        H  0.29576441  0.19441059  0.35743097     0.18340
H923        H  0.35106979  0.23143476  0.43802816     0.18350
F924        F  0.38115334  0.20573908  0.40032651    -0.19410
C925        C  0.60261769  0.18718736  0.29104499    -0.20850
C926        C  0.62626035  0.20273873  0.29983682    -0.08890
C927        C  0.62681346  0.23211195  0.29502388     0.29970
C928        C  0.60401482  0.24552431  0.28212488    -0.20850
C929        C  0.58067456  0.22988126  0.27305013    -0.08900
C930        C  0.58009343  0.20056793  0.27755607     0.29970
F931        F  0.55753245  0.18498908  0.26937337    -0.19420
H932        H  0.60155676  0.16463144  0.29469630     0.18340
H933        H  0.60501483  0.26806429  0.27830015     0.18350
F934        F  0.64986438  0.24771158  0.30164277    -0.19410
C935        C  0.73094945  0.20166055  0.37523228    -0.20850
C936        C  0.70137395  0.20074946  0.37408885    -0.08890
C937        C  0.68588672  0.21347491  0.39608691     0.29970
C938        C  0.69977067  0.22745732  0.41803791    -0.20850
C939        C  0.72926393  0.22828558  0.41901970    -0.08900
C940        C  0.74478008  0.21496679  0.39756168     0.29970
F941        F  0.77335327  0.21573414  0.39755223    -0.19420
H942        H  0.74351117  0.19260049  0.35846642     0.18340
H943        H  0.68744327  0.23725473  0.43458265     0.18350
F944        F  0.65736369  0.21191030  0.39681200    -0.19410
C945        C  0.30935256  0.62625940  0.16455311    -0.20850
C946        C  0.33846815  0.62495200  0.15947140    -0.08890
C947        C  0.35361555  0.60115162  0.16877332     0.29970
C948        C  0.33982276  0.57941955  0.18332631    -0.20850
C949        C  0.31073604  0.58088137  0.18830952    -0.08900
C950        C  0.29556522  0.60443515  0.17872761     0.29970
F951        F  0.26758994  0.60687447  0.18409637    -0.19420
H952        H  0.29733641  0.64459902  0.15812073     0.18340
H953        H  0.35175458  0.56124427  0.19035013     0.18350
F954        F  0.38157002  0.59868644  0.16337651    -0.19410
C955        C  0.43280192  0.71446954  0.14673290    -0.20850
C956        C  0.41177332  0.70097921  0.16276969    -0.08890
C957        C  0.41400765  0.70128868  0.19242597     0.29970
C958        C  0.43691144  0.71435628  0.20547093    -0.20850
C959        C  0.45762613  0.72809951  0.18942814    -0.08900
C960        C  0.45536057  0.72815442  0.15987895     0.29970
F961        F  0.47519754  0.74094629  0.14368222    -0.19420
H962        H  0.43184981  0.71433796  0.12391023     0.18340
H963        H  0.43797170  0.71450984  0.22829946     0.18350
F964        F  0.39352093  0.69009097  0.20897910    -0.19410
C965        C  0.62223383  0.30931004  0.15815454    -0.20850
C966        C  0.62438482  0.33895158  0.15928008    -0.08890
C967        C  0.60338637  0.35417832  0.17377780     0.29970
C968        C  0.58153285  0.33991757  0.18755308    -0.20850
C969        C  0.57967128  0.31033627  0.18655305    -0.08900
C970        C  0.60001839  0.29515448  0.17132321     0.29970
F971        F  0.59921355  0.26652389  0.17019343    -0.19420
H972        H  0.63823218  0.29686326  0.14767760     0.18340
H973        H  0.56585671  0.35207294  0.19885620     0.18350
F974        F  0.60359027  0.38282712  0.17430144    -0.19410
C975        C  0.70475041  0.41160912  0.19243512    -0.20850
C976        C  0.70115394  0.41200116  0.16299752    -0.08890
C977        C  0.71077478  0.43559229  0.14765262     0.29970
C978        C  0.72414056  0.45796136  0.16150878    -0.20850
C979        C  0.72757031  0.45752243  0.19089487    -0.08900
C980        C  0.71769754  0.43418909  0.20631045     0.29970
F981        F  0.72161178  0.43269968  0.23463607    -0.19420
H982        H  0.69792882  0.39355169  0.20469654     0.18340
H983        H  0.73149859  0.47586428  0.14931641     0.18350
F984        F  0.70664349  0.43735906  0.11937627    -0.19410
C985        C  0.83904143  0.22572795  0.04295291    -0.20850
C986        C  0.80966655  0.22868242  0.04306544    -0.08890
C987        C  0.79411975  0.21787452  0.06586563     0.29970
C988        C  0.80783995  0.20453615  0.08827309    -0.20850
C989        C  0.83726849  0.20135201  0.08821876    -0.08900
C990        C  0.85275982  0.21188043  0.06511192     0.29970
F991        F  0.88105021  0.20815724  0.06355637    -0.19420
H992        H  0.85132003  0.23368823  0.02539731     0.18340
H993        H  0.79542795  0.19710501  0.10595308     0.18350
F994        F  0.76574398  0.22112906  0.06697039    -0.19410
C995        C  0.71320088  0.29615025  0.06083867    -0.20850
C996        C  0.72788455  0.31194476  0.04059756    -0.08890
C997        C  0.72872499  0.34151449  0.04314447     0.29970
C998        C  0.71474364  0.35491256  0.06547173    -0.20850
C999        C  0.70020349  0.33905798  0.08597495    -0.08900
C1000       C  0.69991423  0.30937103  0.08349965     0.29970
F1001       F  0.68792383  0.29287098  0.10361599    -0.19420
H1002       H  0.71280424  0.27330217  0.05965108     0.18340
H1003       H  0.71523777  0.37774170  0.06665835     0.18350
F1004       F  0.74259549  0.35747542  0.02382527    -0.19410
C1005       C  0.70507594  0.30734068  0.87248629    -0.20850
C1006       C  0.70146359  0.33679553  0.87272157    -0.08890
C1007       C  0.71162411  0.35235067  0.89592596     0.29970
C1008       C  0.72555995  0.33866968  0.91804636    -0.20850
C1009       C  0.72898686  0.30926625  0.91774160    -0.08900
C1010       C  0.71855226  0.29365087  0.89483009     0.29970
F1011       F  0.72230810  0.26526357  0.89356915    -0.19420
H1012       H  0.69787481  0.29492072  0.85472122     0.18340
H1013       H  0.73323120  0.35097628  0.93570280     0.18350
F1014       F  0.70747223  0.38065863  0.89757207    -0.19410
C1015       C  0.60384988  0.32702858  0.81429481    -0.20850
C1016       C  0.62601830  0.33892847  0.79862757    -0.08890
C1017       C  0.62525826  0.33707793  0.76894926     0.29970
C1018       C  0.60264930  0.32400223  0.75541221    -0.20850
C1019       C  0.58076054  0.31183193  0.77108787    -0.08900
C1020       C  0.58148230  0.31343191  0.80070143     0.29970
F1021       F  0.56032855  0.30231752  0.81645717    -0.19420
H1022       H  0.60380221  0.32833545  0.83710126     0.18340
H1023       H  0.60272291  0.32253909  0.73260472     0.18350
F1024       F  0.64694069  0.34679972  0.75299232    -0.19410
C1025       C  0.69947880  0.41600963  0.77005787    -0.20850
C1026       C  0.70016509  0.41377768  0.79965556    -0.08890
C1027       C  0.71434541  0.43483133  0.81517393     0.29970
C1028       C  0.72801425  0.45700411  0.80121689    -0.20850
C1029       C  0.72716815  0.45908117  0.77168601    -0.08900
C1030       C  0.71247276  0.43851474  0.75622735     0.29970
F1031       F  0.71159853  0.43946076  0.72761763    -0.19420
H1032       H  0.68935997  0.39992965  0.75738684     0.18340
H1033       H  0.73898847  0.47280139  0.81354653     0.18350
F1034       F  0.71455334  0.43442641  0.84379629    -0.19410
C1035       C  0.84020934  0.22520398  0.91920990    -0.20850
C1036       C  0.81070314  0.22547903  0.92049578    -0.08890
C1037       C  0.79525065  0.21130570  0.89957572     0.29970
C1038       C  0.80911166  0.19791462  0.87732335    -0.20850
C1039       C  0.83869605  0.19775222  0.87570248    -0.08900
C1040       C  0.85416039  0.21111660  0.89733151     0.29970
F1041       F  0.88271509  0.21025567  0.89767779    -0.19420
H1042       H  0.85249192  0.23566413  0.93537354     0.18340
H1043       H  0.79651756  0.18838101  0.86085272     0.18350
F1044       F  0.76666916  0.21151815  0.89986165    -0.19410
C1045       C  0.10345907  0.24463640  0.78232541    -0.20850
C1046       C  0.08009868  0.22887928  0.77347687    -0.08890
C1047       C  0.07964064  0.19958825  0.77799974     0.29970
C1048       C  0.10234974  0.18632256  0.79129324    -0.20850
C1049       C  0.12600641  0.20200368  0.79984796    -0.08900
C1050       C  0.12641024  0.23135383  0.79504317     0.29970
F1051       F  0.14947148  0.24703044  0.80144997    -0.19420
H1052       H  0.10434614  0.26717509  0.77844629     0.18340
H1053       H  0.10146476  0.16375473  0.79492470     0.18350
F1054       F  0.05706272  0.18394304  0.77000118    -0.19410
C1055       C  0.12639013  0.33515796  0.69114493    -0.20850
C1056       C  0.12680754  0.33724058  0.66156658    -0.08890
C1057       C  0.10463748  0.32505970  0.64601107     0.29970
C1058       C  0.08274310  0.31095093  0.65990040    -0.20850
C1059       C  0.08226771  0.30933055  0.68944570    -0.08900
C1060       C  0.10428991  0.32154873  0.70498977     0.29970
F1061       F  0.10489650  0.31958151  0.73355845    -0.19420
H1062       H  0.14342953  0.34380627  0.70361901     0.18340
H1063       H  0.06580047  0.30184460  0.64761331     0.18350
F1064       F  0.10365197  0.32750797  0.61750251    -0.19410
C1065       C  0.93588325  0.24580314  0.78418218    -0.20850
C1066       C  0.95759663  0.22978694  0.77211702    -0.08890
C1067       C  0.95628119  0.20017687  0.77356283     0.29970
C1068       C  0.93362569  0.18693428  0.78699517    -0.20850
C1069       C  0.91159297  0.20289143  0.79878205    -0.08900
C1070       C  0.91288500  0.23258479  0.79703249     0.29970
F1071       F  0.89142253  0.24887653  0.80661422    -0.19420
H1072       H  0.93626558  0.26863980  0.78281993     0.18340
H1073       H  0.93338279  0.16410045  0.78829516     0.18350
F1074       F  0.97715708  0.18405236  0.76248370    -0.19410
C1075       C  0.93685926  0.35469032  0.67258237    -0.20850
C1076       C  0.91568727  0.33902708  0.65893000    -0.08890
C1077       C  0.91750694  0.30927200  0.65917552     0.29970
C1078       C  0.93992803  0.29578352  0.67257287    -0.20850
C1079       C  0.96053794  0.31142716  0.68680945    -0.08900
C1080       C  0.95890347  0.34107496  0.68666987     0.29970
F1081       F  0.97872406  0.35690069  0.69991439    -0.19420
H1082       H  0.93629182  0.37754553  0.67252539     0.18340
H1083       H  0.94052247  0.27291170  0.67281019     0.18350
F1084       F  0.89686774  0.29300312  0.64785974    -0.19410
C1085       C  0.80938542  0.34079669  0.54481505    -0.20850
C1086       C  0.81122286  0.31134499  0.54201048    -0.08890
C1087       C  0.82710931  0.29594891  0.56173835     0.29970
C1088       C  0.84042409  0.30974158  0.58402545    -0.20850
C1089       C  0.83882896  0.33925603  0.58690463    -0.08900
C1090       C  0.82331401  0.35473606  0.56679624     0.29970
F1091       F  0.82211183  0.38334446  0.56787809    -0.19420
H1092       H  0.79751231  0.35310884  0.52968130     0.18340
H1093       H  0.85159903  0.29709636  0.59940269     0.18350
F1094       F  0.82903748  0.26739363  0.56011863    -0.19410
C1095       C  0.82544973  0.43741984  0.70679430    -0.20850
C1096       C  0.81153561  0.45795755  0.69066020    -0.08890
C1097       C  0.81136593  0.45543165  0.66113685     0.29970
C1098       C  0.82510656  0.43285280  0.64810031    -0.20850
C1099       C  0.83869859  0.41191092  0.66418171    -0.08900
C1100       C  0.83852580  0.41438539  0.69383711     0.29970
F1101       F  0.84983340  0.39402696  0.71048566    -0.19420
H1102       H  0.82537684  0.43868853  0.72961191     0.18340
H1103       H  0.82518182  0.43183901  0.62527994     0.18350
F1104       F  0.79835657  0.47503902  0.64482132    -0.19410
C1105       C  0.21309319  0.79643175  0.05997546    -0.20850
C1106       C  0.22758254  0.81234575  0.03970423    -0.08890
C1107       C  0.22792408  0.84193886  0.04200880     0.29970
C1108       C  0.21380193  0.85524780  0.06426100    -0.20850
C1109       C  0.19961487  0.83927945  0.08490131    -0.08900
C1110       C  0.19964678  0.80958606  0.08256214     0.29970
F1111       F  0.18792236  0.79304135  0.10278959    -0.19420
H1112       H  0.21303054  0.77357473  0.05890134     0.18340
H1113       H  0.21400328  0.87808726  0.06535427     0.18350
F1114       F  0.24150815  0.85799352  0.02256243    -0.19410
C1115       C  0.33951851  0.73044517  0.04419816    -0.20850
C1116       C  0.31011458  0.72928930  0.04161559    -0.08890
C1117       C  0.29448024  0.71426195  0.06185160     0.29970
C1118       C  0.30803624  0.70112036  0.08444615    -0.20850
C1119       C  0.33753792  0.70198025  0.08707680    -0.08900
C1120       C  0.35320537  0.71661284  0.06640002     0.29970
F1121       F  0.38176613  0.71695853  0.06708002    -0.19420
H1122       H  0.35199044  0.74164248  0.02865808     0.18340
H1123       H  0.29524021  0.69063274  0.10019203     0.18350
F1124       F  0.26595918  0.71305934  0.06038566    -0.19410
C1125       C  0.33916601  0.73044594  0.87538142    -0.20850
C1126       C  0.33935604  0.70079093  0.87396099    -0.08890
C1127       C  0.32571073  0.68530804  0.89539761     0.29970
C1128       C  0.31176371  0.69934135  0.91729913    -0.20850
C1129       C  0.31175161  0.72893874  0.91861922    -0.08900
C1130       C  0.32573818  0.74440193  0.89753622     0.29970
F1131       F  0.32548685  0.77306939  0.89770202    -0.19420
H1132       H  0.34895230  0.74295960  0.85894818     0.18340
H1133       H  0.30130680  0.68705891  0.93349970     0.18350
F1134       F  0.32633558  0.65665648  0.89557218    -0.19410
C1135       C  0.33800642  0.62469363  0.76861491    -0.20850
C1136       C  0.33819464  0.62662658  0.79822809    -0.08890
C1137       C  0.32459125  0.60530023  0.81398987     0.29970
C1138       C  0.31062092  0.58319649  0.80031672    -0.20850
C1139       C  0.31067141  0.58135067  0.77080307    -0.08900
C1140       C  0.32474208  0.60216738  0.75503260     0.29970
F1141       F  0.32480485  0.60134341  0.72640612    -0.19420
H1142       H  0.34769673  0.64093361  0.75578883     0.18340
H1143       H  0.30017261  0.56717227  0.81284938     0.18350
F1144       F  0.32534319  0.60530970  0.84260926    -0.19410
C1145       C  0.45829625  0.69876702  0.77265603    -0.20850
C1146       C  0.45950970  0.72838135  0.77259848    -0.08890
C1147       C  0.43858755  0.74367891  0.78690410     0.29970
C1148       C  0.41654917  0.72958743  0.80038496    -0.20850
C1149       C  0.41512816  0.69989501  0.80056812    -0.08900
C1150       C  0.43660329  0.68456970  0.78683546     0.29970
F1151       F  0.43708800  0.65593165  0.78757264    -0.19420
H1152       H  0.47444829  0.68658627  0.76207593     0.18340
H1153       H  0.40015380  0.74210041  0.81014562     0.18350
F1154       F  0.43875772  0.77234842  0.78690622    -0.19410
C1155       C  0.18613781  0.82733683  0.89450358    -0.20850
C1156       C  0.20181388  0.83915832  0.87220807    -0.08890
C1157       C  0.23144727  0.83720679  0.87309466     0.29970
C1158       C  0.24482653  0.82417515  0.89587708    -0.20850
C1159       C  0.22907043  0.81197203  0.91772203    -0.08900
C1160       C  0.19956432  0.81354793  0.91685277     0.29970
F1161       F  0.18373145  0.80224705  0.93786845    -0.19420
H1162       H  0.16339589  0.82878086  0.89469244     0.18340
H1163       H  0.26758652  0.82272030  0.89595037     0.18350
F1164       F  0.24757035  0.84665483  0.85140946    -0.19410
C1165       C  0.22312543  0.08026231  0.79884185    -0.20850
C1166       C  0.22549907  0.08050708  0.76934157    -0.08890
C1167       C  0.21380275  0.10299415  0.75402773     0.29970
C1168       C  0.20054424  0.12518760  0.76813077    -0.20850
C1169       C  0.19825669  0.12518880  0.79772174    -0.08900
C1170       C  0.20931158  0.10217044  0.81295586     0.29970
F1171       F  0.20641447  0.10057015  0.84139598    -0.19420
H1172       H  0.23176857  0.06290983  0.81095538     0.18340
H1173       H  0.19271726  0.14280793  0.75586701     0.18350
F1174       F  0.21637545  0.10420425  0.72553082    -0.19410
C1175       C  0.31730425  0.07917621  0.66026839    -0.20850
C1176       C  0.31163023  0.08087029  0.68926778    -0.08890
C1177       C  0.32005977  0.10487064  0.70440868     0.29970
C1178       C  0.33384678  0.12694109  0.69063252    -0.20850
C1179       C  0.33958424  0.12537923  0.66159672    -0.08900
C1180       C  0.33141960  0.10116194  0.64650365     0.29970
F1181       F  0.33750611  0.09858126  0.61864826    -0.19420
H1182       H  0.31103937  0.06068267  0.64837586     0.18340
H1183       H  0.33951657  0.14561114  0.70255023     0.18350
F1184       F  0.31383716  0.10750161  0.73224012    -0.19410
C1185       C  0.21268406  0.93760057  0.75341364    -0.20850
C1186       C  0.22557242  0.95894521  0.76928594    -0.08890
C1187       C  0.22450366  0.95761804  0.79887794     0.29970
C1188       C  0.21068831  0.93524369  0.81225523    -0.20850
C1189       C  0.19833532  0.91335950  0.79644674    -0.08900
C1190       C  0.19961671  0.91477307  0.76673324     0.29970
F1191       F  0.18958275  0.89347694  0.75043928    -0.19420
H1192       H  0.21373674  0.93799965  0.73058566     0.18340
H1193       H  0.20974441  0.93503090  0.83507487     0.18350
F1194       F  0.23651119  0.97811562  0.81487364    -0.19410
C1195       C  0.32663961  0.93484921  0.64620127    -0.20850
C1196       C  0.33935154  0.91338391  0.66226011    -0.08890
C1197       C  0.33818145  0.91511876  0.69195005     0.29970
C1198       C  0.32499191  0.93794967  0.70504307    -0.20850
C1199       C  0.31192770  0.95903212  0.68897263    -0.08900
C1200       C  0.31281148  0.95733381  0.65937623     0.29970
F1201       F  0.30067194  0.97759971  0.64319196    -0.19420
H1202       H  0.32741044  0.93424206  0.62337839     0.18340
H1203       H  0.32406175  0.93859017  0.72787065     0.18350
F1204       F  0.34856157  0.89413596  0.70844206    -0.19410
C1205       C  0.33444646  0.80853038  0.58800263    -0.20850
C1206       C  0.33822417  0.83796235  0.58789712    -0.08890
C1207       C  0.32817020  0.85370147  0.56476358     0.29970
C1208       C  0.31424382  0.84017880  0.54252740    -0.20850
C1209       C  0.31071852  0.81077468  0.54269596    -0.08900
C1210       C  0.32098789  0.79501377  0.56558249     0.29970
F1211       F  0.31708221  0.76663416  0.56674866    -0.19420
H1212       H  0.34151680  0.79597870  0.60573677     0.18340
H1213       H  0.30665911  0.85259734  0.52490559     0.18350
F1214       F  0.33241879  0.88201130  0.56330137    -0.19410
C1215       C  0.43690727  0.82299456  0.70497650    -0.20850
C1216       C  0.45884042  0.81122264  0.68910413    -0.08890
C1217       C  0.45803011  0.81309734  0.65952922     0.29970
C1218       C  0.43561586  0.82683992  0.64615984    -0.20850
C1219       C  0.41348686  0.83851961  0.66204586    -0.08900
C1220       C  0.41424037  0.83613636  0.69167687     0.29970
F1221       F  0.39254129  0.84546722  0.70781190    -0.19420
H1222       H  0.43690531  0.82124598  0.72776921     0.18340
H1223       H  0.43563211  0.82849332  0.62337487     0.18350
F1224       F  0.47919007  0.80224195  0.64363599    -0.19410
C1225       C  0.81205650  0.08182568  0.16089673    -0.20850
C1226       C  0.81180041  0.08058360  0.19047982    -0.08890
C1227       C  0.82592183  0.10160998  0.20587392     0.29970
C1228       C  0.83940560  0.12378091  0.19187538    -0.20850
C1229       C  0.83966366  0.12523399  0.16222211    -0.08900
C1230       C  0.82614500  0.10365387  0.14682699     0.29970
F1231       F  0.82696057  0.10324304  0.11821447    -0.19420
H1232       H  0.80162190  0.06562229  0.14861995     0.18340
H1233       H  0.84907544  0.14025131  0.20439741     0.18350
F1234       F  0.82572478  0.10142891  0.23450891    -0.19410
C1235       C  0.69916179  0.12404158  0.26969196    -0.20850
C1236       C  0.69829423  0.12529428  0.29934816    -0.08890
C1237       C  0.71086394  0.10320994  0.31486683     0.29970
C1238       C  0.72483803  0.08123483  0.30094587    -0.20850
C1239       C  0.72580189  0.08028762  0.27137596    -0.08900
C1240       C  0.71241785  0.10167780  0.25583546     0.29970
F1241       F  0.71321845  0.10169253  0.22720957    -0.19420
H1242       H  0.69021959  0.14083153  0.25705348     0.18340
H1243       H  0.73465118  0.06470996  0.31331021     0.18350
F1244       F  0.70926839  0.10247172  0.34344017    -0.19410
C1245       C  0.74346073  0.93477271  0.28141255    -0.20850
C1246       C  0.72751598  0.95743536  0.27110802    -0.08890
C1247       C  0.69812961  0.95706573  0.27429620     0.29970
C1248       C  0.68500889  0.93438129  0.28796645    -0.20850
C1249       C  0.70095955  0.91157740  0.29828235    -0.08900
C1250       C  0.73037862  0.91186513  0.29451906     0.29970
F1251       F  0.74645061  0.88958626  0.30257872    -0.19420
H1252       H  0.76610324  0.93448951  0.27864957     0.18340
H1253       H  0.66238170  0.93474764  0.29073398     0.18350
F1254       F  0.68224508  0.97896403  0.26494534    -0.19410
C1255       C  0.58076434  0.83973899  0.27451241    -0.20850
C1256       C  0.58050312  0.81020108  0.27217851    -0.08890
C1257       C  0.60264226  0.79453719  0.28405005     0.29970
C1258       C  0.62479090  0.80825020  0.29768571    -0.20850
C1259       C  0.62518821  0.83781999  0.30014252    -0.08900
C1260       C  0.60272085  0.85348466  0.28865202     0.29970
F1261       F  0.60166898  0.88197691  0.29155503    -0.19420
H1262       H  0.56372397  0.85213584  0.26574776     0.18340
H1263       H  0.64202555  0.79568544  0.30578977     0.18350
F1264       F  0.60346813  0.76599826  0.28149183    -0.19410
C1265       C  0.68547704  0.83069684  0.39825815    -0.20850
C1266       C  0.70062305  0.83776338  0.37376672    -0.08890
C1267       C  0.72938200  0.83082045  0.37210918     0.29970
C1268       C  0.74275881  0.81758772  0.39474341    -0.20850
C1269       C  0.72762342  0.81048901  0.41912277    -0.08900
C1270       C  0.69884906  0.81707105  0.42079755     0.29970
F1271       F  0.68394022  0.81103662  0.44447911    -0.19420
H1272       H  0.66335589  0.83594135  0.39997824     0.18340
H1273       H  0.76486641  0.81224270  0.39298794     0.18350
F1274       F  0.74432231  0.83593851  0.34822151    -0.19410
C1275       C  0.83829320  0.91429787  0.19286614    -0.20850
C1276       C  0.83844823  0.91251946  0.16322801    -0.08890
C1277       C  0.82529666  0.93418687  0.14760698     0.29970
C1278       C  0.81170293  0.95642531  0.16141684    -0.20850
C1279       C  0.81166224  0.95806714  0.19095256    -0.08900
C1280       C  0.82536211  0.93695236  0.20660165     0.29970
F1281       F  0.82526330  0.93755973  0.23523095    -0.19420
H1282       H  0.84769901  0.89782204  0.20557399     0.18340
H1283       H  0.80151397  0.97265830  0.14897042     0.18350
F1284       F  0.82607880  0.93433427  0.11898624    -0.19410
C1285       C  0.12644314  0.73188138  0.29755743    -0.20850
C1286       C  0.12708834  0.70223384  0.29939789    -0.08890
C1287       C  0.10446162  0.68667850  0.28806765     0.29970
C1288       C  0.08214761  0.70056644  0.27471004    -0.20850
C1289       C  0.08159157  0.73014995  0.27305482    -0.08900
C1290       C  0.10384871  0.74573975  0.28477678     0.29970
F1291       F  0.10435393  0.77433598  0.28283841    -0.19420
H1292       H  0.14373705  0.74441955  0.30558713     0.18340
H1293       H  0.06505541  0.68820702  0.26596881     0.18350
F1294       F  0.10352844  0.65813124  0.29046760    -0.19410
C1295       C  0.09986562  0.79559774  0.17236868    -0.20850
C1296       C  0.08029445  0.81134534  0.18790836    -0.08890
C1297       C  0.08327055  0.84087326  0.18919320     0.29970
C1298       C  0.10542381  0.85425659  0.17503952    -0.20850
C1299       C  0.12546007  0.83847753  0.15990004    -0.08900
C1300       C  0.12244995  0.80882546  0.15890245     0.29970
F1301       F  0.14201768  0.79231061  0.14616206    -0.19420
H1302       H  0.09830262  0.77278712  0.17152367     0.18340
H1303       H  0.10687746  0.87705291  0.17598750     0.18350
F1304       F  0.06461438  0.85686713  0.20385171    -0.19410
C1305       C  0.93525531  0.85421646  0.17400699    -0.20850
C1306       C  0.91436774  0.83844339  0.16003168    -0.08890
C1307       C  0.91644590  0.80869406  0.16022610     0.29970
C1308       C  0.93888555  0.79535097  0.17379761    -0.20850
C1309       C  0.95923490  0.81112644  0.18827775    -0.08900
C1310       C  0.95726647  0.84075372  0.18828268     0.29970
F1311       F  0.97680885  0.85673441  0.20175661    -0.19420
H1312       H  0.93455531  0.87706690  0.17398543     0.18340
H1313       H  0.93974878  0.77248789  0.17389345     0.18350
F1314       F  0.89610029  0.79227785  0.14860054    -0.19410
C1315       C  0.91631869  0.73060633  0.30180477    -0.20850
C1316       C  0.91474091  0.70091289  0.30164554    -0.08890
C1317       C  0.93635155  0.68560239  0.28815547     0.29970
C1318       C  0.95824393  0.69980626  0.27436652    -0.20850
C1319       C  0.95953914  0.72942276  0.27444863    -0.08900
C1320       C  0.93858203  0.74471938  0.28868716     0.29970
F1321       F  0.93886204  0.77338321  0.28884210    -0.19420
H1322       H  0.89984920  0.74309379  0.31146945     0.18340
H1323       H  0.97441268  0.68761006  0.26382969     0.18350
F1324       F  0.93670821  0.65695468  0.28866040    -0.19410
C1325       C  0.82335021  0.60316232  0.25471112    -0.20850
C1326       C  0.81146072  0.58132850  0.27077863    -0.08890
C1327       C  0.81300222  0.58264316  0.30034910     0.29970
C1328       C  0.82643604  0.60538258  0.31350453    -0.20850
C1329       C  0.83809523  0.62752167  0.29749292    -0.08900
C1330       C  0.83616083  0.62625790  0.26783532     0.29970
F1331       F  0.84551373  0.64784193  0.25147851    -0.19420
H1332       H  0.82185016  0.60281598  0.23191014     0.18340
H1333       H  0.82784211  0.60560244  0.33630488     0.18350
F1334       F  0.80199667  0.56169417  0.31651459    -0.19410
C1335       C  0.83745136  0.73025576  0.37546873    -0.20850
C1336       C  0.83836744  0.70059688  0.37429239    -0.08890
C1337       C  0.82534400  0.68495942  0.39598564     0.29970
C1338       C  0.81134303  0.69885028  0.41796782    -0.20850
C1339       C  0.81065475  0.72846188  0.41905335    -0.08900
C1340       C  0.82396620  0.74407473  0.39767082     0.29970
F1341       F  0.82300071  0.77272652  0.39762743    -0.19420
H1342       H  0.84676470  0.74285868  0.35882708     0.18340
H1343       H  0.80140177  0.68647278  0.43442052     0.18350
F1344       F  0.82668575  0.65633513  0.39634160    -0.19410
C1345       C  0.24348014  0.60110603  0.67427125    -0.20850
C1346       C  0.22753384  0.58086367  0.68879235    -0.08890
C1347       C  0.19806258  0.58345137  0.68940294     0.29970
C1348       C  0.18488294  0.60588965  0.67545903    -0.20850
C1349       C  0.20085657  0.62644196  0.66115676    -0.08900
C1350       C  0.23044209  0.62388444  0.66096717     0.29970
F1351       F  0.24698472  0.64399240  0.64904341    -0.19420
H1352       H  0.26624826  0.59981077  0.67401492     0.18340
H1353       H  0.16212695  0.60712847  0.67578367     0.18350
F1354       F  0.18197366  0.56404723  0.70300669    -0.19410
C1355       C  0.18477345  0.71374408  0.56427900    -0.20850
C1356       C  0.20045497  0.69982878  0.58529575    -0.08890
C1357       C  0.23011247  0.70027252  0.58348923     0.29970
C1358       C  0.24349285  0.71384916  0.56108821    -0.20850
C1359       C  0.22783751  0.72810855  0.54050398    -0.08900
C1360       C  0.19830313  0.72805873  0.54225905     0.29970
F1361       F  0.18252190  0.74142757  0.52248353    -0.19420
H1362       H  0.16199486  0.71360301  0.56487794     0.18340
H1363       H  0.26629058  0.71408627  0.56040516     0.18350
F1364       F  0.24639757  0.68885402  0.60405104    -0.19410
C1365       C  0.58135241  0.22552237  0.66025919    -0.20850
C1366       C  0.58005648  0.22568047  0.68984083    -0.08890
C1367       C  0.60095443  0.21146479  0.70522976     0.29970
C1368       C  0.62322390  0.19822923  0.69123266    -0.20850
C1369       C  0.62483281  0.19818322  0.66155784    -0.08900
C1370       C  0.60319264  0.21156525  0.64617702     0.29970
F1371       F  0.60272502  0.21078622  0.61756749    -0.19420
H1372       H  0.56520871  0.23600215  0.64798766     0.18340
H1373       H  0.63966334  0.18865031  0.70380587     0.18350
F1374       F  0.60061816  0.21145856  0.73386315    -0.19410
C1375       C  0.71337940  0.18557918  0.56562174    -0.20850
C1376       C  0.70116954  0.20150060  0.58753117    -0.08890
C1377       C  0.70318099  0.23119039  0.58638300     0.29970
C1378       C  0.71643677  0.24440379  0.56360984    -0.20850
C1379       C  0.72878830  0.22845489  0.54197114    -0.08900
C1380       C  0.72733441  0.19885642  0.54322085     0.29970
F1381       F  0.73881652  0.18279650  0.52249218    -0.19420
H1382       H  0.71200696  0.16275235  0.56573982     0.18340
H1383       H  0.71782074  0.26724267  0.56333161     0.18350
F1384       F  0.69347467  0.24753174  0.60778644    -0.19410
C1385       C  0.70054602  0.62493981  0.19294280    -0.20850
C1386       C  0.69999479  0.62639527  0.16329732    -0.08890
C1387       C  0.71252028  0.60441095  0.14767920     0.29970
C1388       C  0.72586105  0.58204624  0.16149796    -0.20850
C1389       C  0.72632924  0.58070338  0.19105323    -0.08900
C1390       C  0.71330954  0.60222002  0.20671757     0.29970
F1391       F  0.71396500  0.60194084  0.23534439    -0.19420
H1392       H  0.69155514  0.64170547  0.20557645     0.18340
H1393       H  0.73558968  0.56553054  0.14905677     0.18350
F1394       F  0.71136160  0.60413128  0.11907273    -0.19410
C1395       C  0.62299677  0.72930048  0.16083101    -0.20850
C1396       C  0.62375176  0.69962928  0.15978683    -0.08890
C1397       C  0.60183540  0.68427245  0.17275100     0.29970
C1398       C  0.58026257  0.69841189  0.18707108    -0.20850
C1399       C  0.57972889  0.72802228  0.18810459    -0.08900
C1400       C  0.60115950  0.74338127  0.17458447     0.29970
F1401       F  0.60167885  0.77202583  0.17564953    -0.19420
H1402       H  0.63979019  0.74172375  0.15159708     0.18340
H1403       H  0.56371982  0.68621384  0.19704377     0.18350
F1404       F  0.60091425  0.65567509  0.17119210    -0.19410
C1405       C  0.83693583  0.09997922  0.81083372    -0.20850
C1406       C  0.83885529  0.12655925  0.79781976    -0.08890
C1407       C  0.82723614  0.13040287  0.77082658     0.29970
C1408       C  0.81421637  0.10789222  0.75697226    -0.20850
C1409       C  0.81218782  0.08141482  0.77000737    -0.08900
C1410       C  0.82366932  0.07747855  0.79701048     0.29970
F1411       F  0.82256642  0.05178011  0.80965618    -0.19420
H1412       H  0.84587619  0.09667004  0.83158600     0.18340
H1413       H  0.80517221  0.11125571  0.73626888     0.18350
F1414       F  0.82773354  0.15616797  0.75827170    -0.19410
C1415       C  0.71738760  0.13108220  0.68481670    -0.20850
C1416       C  0.70104494  0.12575609  0.66079247    -0.08890
C1417       C  0.69876378  0.09807592  0.65043054     0.29970
C1418       C  0.71294782  0.07598353  0.66399105    -0.20850
C1419       C  0.72923688  0.08139193  0.68806225    -0.08900
C1420       C  0.73139648  0.10904285  0.69842786     0.29970
F1421       F  0.74739950  0.11472102  0.72145413    -0.19420
H1422       H  0.71935376  0.15238364  0.69291523     0.18340
H1423       H  0.71104859  0.05466646  0.65592272     0.18350
F1424       F  0.68262391  0.09247529  0.62748899    -0.19410
C1425       C  0.07935492  0.83946309  0.77534637    -0.20850
C1426       C  0.07908949  0.80993098  0.77321855    -0.08890
C1427       C  0.10121401  0.79434219  0.78518882     0.29970
C1428       C  0.12360358  0.80818728  0.79832332    -0.20850
C1429       C  0.12414174  0.83781771  0.80037795    -0.08900
C1430       C  0.10139212  0.85333035  0.78917629     0.29970
F1431       F  0.10013036  0.88182304  0.79194951    -0.19420
H1432       H  0.06228389  0.85179706  0.76654901     0.18340
H1433       H  0.14094501  0.79564379  0.80621060     0.18350
F1434       F  0.10189332  0.76576629  0.78302369    -0.19410
C1435       C  0.12495152  0.73203109  0.66177925    -0.20850
C1436       C  0.12686260  0.70237987  0.66155848    -0.08890
C1437       C  0.10529100  0.68657995  0.67461399     0.29970
C1438       C  0.08293423  0.70023973  0.68810763    -0.20850
C1439       C  0.08112166  0.72980488  0.68817765    -0.08900
C1440       C  0.10221460  0.74562011  0.67462306     0.29970
F1441       F  0.10145565  0.77427428  0.67468095    -0.19420
H1442       H  0.14136103  0.74486372  0.65243592     0.18340
H1443       H  0.06673067  0.68764607  0.69815429     0.18350
F1444       F  0.10533078  0.65793268  0.67377346    -0.19410
C1445       C  0.81036714  0.84063214  0.04380432    -0.20850
C1446       C  0.81069900  0.81104740  0.04203559    -0.08890
C1447       C  0.82521103  0.79550040  0.06267977     0.29970
C1448       C  0.83872316  0.80932479  0.08484396    -0.20850
C1449       C  0.83856296  0.83895672  0.08672193    -0.08900
C1450       C  0.82442983  0.85455057  0.06571431     0.29970
F1451       F  0.82470408  0.88320589  0.06592404    -0.19420
H1452       H  0.79956924  0.85301521  0.02793506     0.18340
H1453       H  0.84887845  0.79668653  0.10092780     0.18350
F1454       F  0.82550176  0.76683994  0.06206884    -0.19410
C1455       C  0.72899848  0.69889065  0.04435800    -0.20850
C1456       C  0.72746542  0.72838895  0.04187768    -0.08890
C1457       C  0.71186882  0.74369916  0.06190875     0.29970
C1458       C  0.69863715  0.72978087  0.08422486    -0.20850
C1459       C  0.69997590  0.70021516  0.08682109    -0.08900
C1460       C  0.71511146  0.68483070  0.06632957     0.29970
F1461       F  0.71599068  0.65619812  0.06702410    -0.19420
H1462       H  0.74061509  0.68663383  0.02897692     0.18340
H1463       H  0.68775766  0.74237783  0.09985151     0.18350
F1464       F  0.71018302  0.77228499  0.06056866    -0.19410
C1465       C  0.91205194  0.83469251  0.76887855    -0.20850
C1466       C  0.91155673  0.83696370  0.79844360    -0.08890
C1467       C  0.93389180  0.82510586  0.81407705     0.29970
C1468       C  0.95585368  0.81101027  0.80033288    -0.20850
C1469       C  0.95637217  0.80917348  0.77082575    -0.08900
C1470       C  0.93431462  0.82120261  0.75516743     0.29970
F1471       F  0.93383262  0.81915677  0.72660488    -0.19420
H1472       H  0.89496717  0.84305148  0.75629123     0.18340
H1473       H  0.97283957  0.80211509  0.81270767     0.18350
F1474       F  0.93499910  0.82784916  0.84255365    -0.19410
C1475       C  0.85488036  0.93446834  0.78484334    -0.20850
C1476       C  0.83904209  0.91433137  0.79993762    -0.08890
C1477       C  0.80944868  0.91703958  0.80029699     0.29970
C1478       C  0.79634541  0.93943980  0.78638591    -0.20850
C1479       C  0.81214581  0.95918657  0.77101265    -0.08900
C1480       C  0.84160722  0.95646528  0.77023231     0.29970
F1481       F  0.85763014  0.97530133  0.75578260    -0.19420
H1482       H  0.87762627  0.93325267  0.78432971     0.18340
H1483       H  0.77358642  0.94079917  0.78688573     0.18350
F1484       F  0.79288107  0.89737141  0.81290568    -0.19410
C1485       C  0.80938504  0.84065590  0.87716873    -0.20850
C1486       C  0.83894260  0.84022771  0.87542652    -0.08890
C1487       C  0.85422575  0.82596412  0.89657050     0.29970
C1488       C  0.84007789  0.81185101  0.91833498    -0.20850
C1489       C  0.81056069  0.81226794  0.91985502    -0.08900
C1490       C  0.79532935  0.82709477  0.89920224     0.29970
F1491       F  0.76675350  0.82754953  0.89960465    -0.19420
H1492       H  0.79696952  0.85092632  0.86099787     0.18340
H1493       H  0.85223285  0.80086257  0.93424232     0.18350
F1494       F  0.88280017  0.82603932  0.89655622    -0.19410
C1495       C  0.93441645  0.68621897  0.67138696    -0.20850
C1496       C  0.91231774  0.70230894  0.65989861    -0.08890
C1497       C  0.91362066  0.73199764  0.66193926     0.29970
C1498       C  0.93665281  0.74506705  0.67475640    -0.20850
C1499       C  0.95835201  0.72892479  0.68661036    -0.08900
C1500       C  0.95706887  0.69934213  0.68492267     0.29970
F1501       F  0.97789530  0.68315976  0.69599599    -0.19420
H1502       H  0.93417269  0.66340183  0.66990764     0.18340
H1503       H  0.93699356  0.76788695  0.67641691     0.18350
F1504       F  0.89206508  0.74843709  0.65282008    -0.19410
C1505       C  0.82209687  0.60358759  0.70516527    -0.20850
C1506       C  0.81172199  0.58084506  0.68938096    -0.08890
C1507       C  0.81463439  0.58112095  0.65989274     0.29970
C1508       C  0.82790901  0.60386609  0.64650119    -0.20850
C1509       C  0.83806695  0.62688304  0.66224758    -0.08900
C1510       C  0.83476798  0.62659942  0.69179921     0.29970
F1511       F  0.84262906  0.64907380  0.70771962    -0.19420
H1512       H  0.81947462  0.60398449  0.72786988     0.18340
H1513       H  0.83033247  0.60345906  0.62378680     0.18350
F1514       F  0.80512335  0.55918482  0.64412457    -0.19410
C1515       C  0.83394834  0.68730755  0.56090975    -0.20850
C1516       C  0.83665037  0.70099435  0.58701668    -0.08890
C1517       C  0.82602362  0.72848110  0.59029295     0.29970
C1518       C  0.81324993  0.74221909  0.56761852    -0.20850
C1519       C  0.81056078  0.72859975  0.54154218    -0.08900
C1520       C  0.82093550  0.70103210  0.53822508     0.29970
F1521       F  0.81907770  0.68776260  0.51292158    -0.19420
H1522       H  0.84220840  0.66618320  0.55807040     0.18340
H1523       H  0.80491898  0.76331416  0.57054295     0.18350
F1524       F  0.82747623  0.74173712  0.61563687    -0.19410
C1525       C  0.71088541  0.96453702  0.66561278    -0.20850
C1526       C  0.72928840  0.95893755  0.68806654    -0.08890
C1527       C  0.73388401  0.93098030  0.69665031     0.29970
C1528       C  0.72014765  0.90882619  0.68292614    -0.20850
C1529       C  0.70170627  0.91431760  0.66050999    -0.08900
C1530       C  0.69705993  0.94229944  0.65187109     0.29970
F1531       F  0.67912437  0.94801859  0.63034255    -0.19420
H1532       H  0.70721108  0.98607667  0.65884447     0.18340
H1533       H  0.72387311  0.88731160  0.68975249     0.18350
F1534       F  0.75178862  0.92517419  0.71819898    -0.19410
C1535       C  0.60584930  0.82625434  0.64648389    -0.20850
C1536       C  0.62639325  0.84061108  0.66242638    -0.08890
C1537       C  0.62373603  0.84078337  0.69208475     0.29970
C1538       C  0.60103370  0.82732056  0.70514399    -0.20850
C1539       C  0.58100488  0.81253693  0.68920739    -0.08900
C1540       C  0.58363337  0.81200168  0.65969510     0.29970
F1541       F  0.56451475  0.79809528  0.64358025    -0.19420
H1542       H  0.60694125  0.82598442  0.62367734     0.18340
H1543       H  0.59969480  0.82757393  0.72795957     0.18350
F1544       F  0.64372386  0.85266811  0.70873055    -0.19410
C1545       C  0.71160688  0.85337592  0.56490836    -0.20850
C1546       C  0.70193009  0.83771177  0.58819625    -0.08890
C1547       C  0.70565539  0.80819000  0.58822144     0.29970
C1548       C  0.71819808  0.79475193  0.56519668    -0.20850
C1549       C  0.72797769  0.81045622  0.54210673    -0.08900
C1550       C  0.72471283  0.83993752  0.54213832     0.29970
F1551       F  0.73361786  0.85564698  0.51989537    -0.19420
H1552       H  0.70882659  0.87606692  0.56425489     0.18340
H1553       H  0.72109027  0.77206406  0.56579049     0.18350
F1554       F  0.69821132  0.79239302  0.61093298    -0.19410
C1555       C  0.69869953  0.72454840  0.92039728    -0.20850
C1556       C  0.72801076  0.72819136  0.91958332    -0.08890
C1557       C  0.74333411  0.71732886  0.89670085     0.29970
C1558       C  0.72947852  0.70331224  0.87487411    -0.20850
C1559       C  0.70012973  0.69956309  0.87552980    -0.08900
C1560       C  0.68482597  0.71008383  0.89871136     0.29970
F1561       F  0.65661430  0.70595606  0.90066520    -0.19420
H1562       H  0.68662050  0.73254194  0.93805734     0.18340
H1563       H  0.74168991  0.69596094  0.85702716     0.18350
F1564       F  0.77159221  0.72128084  0.89487075    -0.19410
C1565       C  0.60551764  0.68672178  0.78685307    -0.20850
C1566       C  0.62709715  0.70275632  0.79937181    -0.08890
C1567       C  0.62558852  0.73245306  0.79802408     0.29970
C1568       C  0.60278784  0.74560253  0.78490975    -0.20850
C1569       C  0.58151171  0.72954476  0.77215692    -0.08900
C1570       C  0.58304867  0.69993945  0.77312782     0.29970
F1571       F  0.56256422  0.68381590  0.76132859    -0.19420
H1572       H  0.60598914  0.66387410  0.78778884     0.18340
H1573       H  0.60222668  0.76845569  0.78390201     0.18350
F1574       F  0.64668209  0.74885049  0.80825827    -0.19410
C1575       C  0.68546582  0.60667783  0.78455798    -0.20850
C1576       C  0.70147144  0.62752845  0.79838105    -0.08890
C1577       C  0.73107588  0.62544468  0.79778690     0.29970
C1578       C  0.74411111  0.60270461  0.78441424    -0.20850
C1579       C  0.72812101  0.58202596  0.77058084    -0.08900
C1580       C  0.69862785  0.58428092  0.77051824     0.29970
F1581       F  0.68251584  0.56450429  0.75752826    -0.19420
H1582       H  0.66269304  0.60757500  0.78479800     0.18340
H1583       H  0.76689382  0.60167615  0.78420933     0.18350
F1584       F  0.74759018  0.64589453  0.80913177    -0.19410
loop_ 
_geom_bond_atom_site_label_1 
_geom_bond_atom_site_label_2 
_geom_bond_distance 
_geom_bond_site_symmetry_2 
_ccdc_geom_bond_type 
C1            C2   1.403       .  A
C1            C6   1.403       .  A
C1         C1559   1.485       .  S
C2            C3   1.405       .  A
C2            H7   1.082       .  S
C3            C4   1.406       .  A
C3         C1566   1.487       .  S
C4            C5   1.405       .  A
C4            H8   1.083       .  S
C5            C6   1.405       .  A
C5         C1576   1.489       .  S
C6            H9   1.083       .  S
C10          C11   1.407       .  A
C10          C15   1.405       .  A
C10        C1546   1.487       .  S
C11          C12   1.408       .  A
C11          H16   1.082       .  S
C12          C13   1.407       .  A
C12        C1536   1.494       .  S
C13          C14   1.400       .  A
C13          H17   1.083       .  S
C14          C15   1.400       .  A
C14        C1529   1.472       .  S
C15          H18   1.084       .  S
C19          C20   1.406       .  A
C19          C24   1.407       .  A
C19        C1509   1.486       .  S
C20          C21   1.401       .  A
C20          H25   1.084       .  S
C21          C22   1.400       .  A
C21        C1516   1.474       .  S
C22          C23   1.403       .  A
C22          H26   1.083       .  S
C23          C24   1.406       .  A
C23        C1496   1.488       .  S
C24          H27   1.083       .  S
C28          C29   1.405       .  A
C28          C33   1.404       .  A
C28        C1486   1.490       .  S
C29          C30   1.406       .  A
C29          H34   1.082       .  S
C30          C31   1.407       .  A
C30        C1476   1.494       .  S
C31          C32   1.407       .  A
C31          H35   1.082       .  S
C32          C33   1.405       .  A
C32        C1466   1.489       .  S
C33          H36   1.082       .  S
O37         Ni45   1.921       .  S
O37          C47   1.282       .  A
O38         Ni45   1.921   1_554  S
O38          C48   1.282       .  A
O39         Ni45   1.913       .  S
O39          C49   1.281       .  A
O40         Ni45   1.912   1_554  S
O40          C50   1.280       .  A
O41         Ni46   1.922   1_554  S
O41          C50   1.282       .  A
O42         Ni46   1.921       .  S
O42          C49   1.282       .  A
O43         Ni46   1.911   1_554  S
O43          C48   1.280       .  A
O44         Ni46   1.912       .  S
O44          C47   1.280       .  A
Ni45        Ni46   2.388       .  S
C47        C1556   1.472       .  S
C48        C1446   1.476       .  S
C49        C1489   1.477       .  S
C50        C1456   1.478       .  S
O51         Ni59   1.914       .  S
O51          C61   1.281       .  A
O52         Ni59   1.915   1_655  S
O52          C62   1.280       .  A
O53         Ni59   1.917       .  S
O53          C63   1.281       .  A
O54         Ni59   1.924   1_655  S
O54          C64   1.283       .  A
O55         Ni60   1.910   1_655  S
O55          C64   1.280       .  A
O56         Ni60   1.917       .  S
O56          C63   1.281       .  A
O57         Ni60   1.917   1_655  S
O57          C62   1.281       .  A
O58         Ni60   1.918       .  S
O58          C61   1.281       .  A
Ni59        Ni60   2.390       .  S
C61        C1426   1.474       .  S
C62        C1499   1.472       .  S
C63        C1439   1.477       .  S
C64        C1469   1.474       .  S
O65         Ni73   1.912   1_565  S
O65          C75   1.281       .  A
O66         Ni73   1.916       .  S
O66          C76   1.280       .  A
O67         Ni73   1.919   1_565  S
O67          C77   1.281       .  A
O68         Ni73   1.919       .  S
O68          C78   1.281       .  A
O69         Ni74   1.917       .  S
O69          C78   1.280       .  A
O70         Ni74   1.917   1_565  S
O70          C77   1.280       .  A
O71         Ni74   1.918       .  S
O71          C76   1.280       .  A
O72         Ni74   1.924   1_565  S
O72          C75   1.283       .  A
Ni73        Ni74   2.391       .  S
C75        C1479   1.479       .  S
C76        C1419   1.465       .  S
C77        C1526   1.466       .  S
C78        C1409   1.468       .  S
C79          C80   1.406       .  A
C79          C84   1.406       .  A
C79        C1459   1.492       .  S
C80          C81   1.406       .  A
C80          H85   1.082       .  S
C81          C82   1.405       .  A
C81        C1386   1.488       .  S
C82          C83   1.404       .  A
C82          H86   1.082       .  S
C83          C84   1.405       .  A
C83        C1396   1.489       .  S
C84          H87   1.083       .  S
C88          C89   1.399       .  A
C88          C93   1.399       .  A
C88        C1416   1.471       .  S
C89          C90   1.406       .  A
C89          H94   1.084       .  S
C90          C91   1.409       .  A
C90        C1376   1.492       .  S
C91          C92   1.409       .  A
C91          H95   1.081       .  S
C92          C93   1.406       .  A
C92        C1369   1.494       .  S
C93          H96   1.083       .  S
C97          C98   1.405       .  A
C97         C102   1.403       .  A
C97        C1356   1.490       .  S
C98          C99   1.407       .  A
C98         H103   1.082       .  S
C99         C100   1.407       .  A
C99        C1436   1.491       .  S
C100        C101   1.405       .  A
C100        H104   1.083       .  S
C101        C102   1.403       .  A
C101       C1349   1.489       .  S
C102        H105   1.082       .  S
C106        C107   1.405       .  A
C106        C111   1.406       .  A
C106       C1316   1.492       .  S
C107        C108   1.404       .  A
C107        H112   1.083       .  S
C108        C109   1.405       .  A
C108       C1336   1.488       .  S
C109        C110   1.406       .  A
C109        H113   1.083       .  S
C110        C111   1.407       .  A
C110       C1329   1.489       .  S
C111        H114   1.081       .  S
O115       Ni123   1.913       .  S
O115        C125   1.280       .  A
O116       Ni123   1.919   1_655  S
O116        C126   1.282       .  A
O117       Ni123   1.920       .  S
O117        C127   1.282       .  A
O118       Ni123   1.916   1_655  S
O118        C128   1.281       .  A
O119       Ni124   1.919   1_655  S
O119        C128   1.282       .  A
O120       Ni124   1.914       .  S
O120        C127   1.280       .  A
O121       Ni124   1.915   1_655  S
O121        C126   1.281       .  A
O122       Ni124   1.920       .  S
O122        C125   1.283       .  A
Ni123      Ni124   2.389       .  S
C125       C1296   1.477       .  S
C126       C1319   1.477       .  S
C127       C1289   1.474       .  S
C128       C1309   1.477       .  S
C129        C130   1.408       .  A
C129        C134   1.406       .  A
C129       C1276   1.492       .  S
C130        C131   1.407       .  A
C130        H135   1.082       .  S
C131        C132   1.404       .  A
C131       C1306   1.493       .  S
C132        C133   1.404       .  A
C132        H136   1.083       .  S
C133        C134   1.404       .  A
C133       C1449   1.489       .  S
C134        H137   1.082       .  S
C138        C139   1.402       .  A
C138        C143   1.402       .  A
C138       C1266   1.482       .  S
C139        C140   1.407       .  A
C139        H144   1.084       .  S
C140        C141   1.406       .  A
C140       C1259   1.486       .  S
C141        C142   1.405       .  A
C141        H145   1.083       .  S
C142        C143   1.404       .  A
C142       C1249   1.485       .  S
C143        H146   1.083       .  S
O147       Ni155   1.918       .  S
O147        C157   1.281       .  A
O148       Ni155   1.923   1_565  S
O148        C158   1.282       .  A
O149       Ni155   1.916       .  S
O149        C159   1.281       .  A
O150       Ni155   1.917   1_565  S
O150        C160   1.281       .  A
O151       Ni156   1.918   1_565  S
O151        C160   1.281       .  A
O152       Ni156   1.920       .  S
O152        C159   1.282       .  A
O153       Ni156   1.910   1_565  S
O153        C158   1.280       .  A
O154       Ni156   1.917       .  S
O154        C157   1.281       .  A
Ni155      Ni156   2.389       .  S
C157       C1226   1.477       .  S
C158       C1246   1.471       .  S
C159       C1239   1.477       .  S
C160       C1279   1.476       .  S
C161        C162   1.404       .  A
C161        C166   1.403       .  A
C161       C1219   1.486       .  S
C162        C163   1.406       .  A
C162        H167   1.083       .  S
C163        C164   1.405       .  A
C163       C1206   1.485       .  S
C164        C165   1.406       .  A
C164        H168   1.083       .  S
C165        C166   1.403       .  A
C165       C1196   1.488       .  S
C166        H169   1.083       .  S
O170       Ni178   1.913       .  S
O170        C180   1.280       .  A
O171       Ni178   1.919   1_565  S
O171        C181   1.282       .  A
O172       Ni178   1.919       .  S
O172        C182   1.282       .  A
O173       Ni178   1.912   1_565  S
O173        C183   1.280       .  A
O174       Ni179   1.919   1_565  S
O174        C183   1.282       .  A
O175       Ni179   1.912       .  S
O175        C182   1.280       .  A
O176       Ni179   1.911   1_565  S
O176        C181   1.280       .  A
O177       Ni179   1.917       .  S
O177        C180   1.281       .  A
Ni178      Ni179   2.391       .  S
C180       C1176   1.468       .  S
C181       C1186   1.473       .  S
C182       C1166   1.472       .  S
C183       C1199   1.474       .  S
C184        C185   1.405       .  A
C184        C189   1.406       .  A
C184       C1189   1.490       .  S
C185        C186   1.405       .  A
C185        H190   1.081       .  S
C186        C187   1.406       .  A
C186       C1429   1.490       .  S
C187        C188   1.406       .  A
C187        H191   1.083       .  S
C188        C189   1.406       .  A
C188       C1156   1.491       .  S
C189        H192   1.082       .  S
C193        C194   1.406       .  A
C193        C198   1.406       .  A
C193       C1149   1.493       .  S
C194        C195   1.404       .  A
C194        H199   1.083       .  S
C195        C196   1.403       .  A
C195       C1126   1.488       .  S
C196        C197   1.405       .  A
C196        H200   1.082       .  S
C197        C198   1.408       .  A
C197       C1136   1.491       .  S
C198        H201   1.081       .  S
O202       Ni210   1.922   1_554  S
O202        C212   1.282       .  A
O203       Ni210   1.915       .  S
O203        C213   1.281       .  A
O204       Ni210   1.919   1_554  S
O204        C214   1.281       .  A
O205       Ni210   1.912       .  S
O205        C215   1.280       .  A
O206       Ni211   1.920       .  S
O206        C215   1.282       .  A
O207       Ni211   1.912   1_554  S
O207        C214   1.281       .  A
O208       Ni211   1.918       .  S
O208        C213   1.281       .  A
O209       Ni211   1.913   1_554  S
O209        C212   1.281       .  A
Ni210      Ni211   2.390       .  S
C212       C1116   1.478       .  S
C213       C1159   1.474       .  S
C214       C1106   1.474       .  S
C215       C1129   1.475       .  S
C216        C217   1.406       .  A
C216        C221   1.404       .  A
C216       C1076   1.491       .  S
C217        C218   1.407       .  A
C217        H222   1.081       .  S
C218        C219   1.407       .  A
C218       C1099   1.491       .  S
C219        C220   1.404       .  A
C219        H223   1.082       .  S
C220        C221   1.404       .  A
C220       C1089   1.490       .  S
C221        H224   1.083       .  S
O225       Ni233   1.916   1_655  S
O225        C235   1.282       .  A
O226       Ni233   1.916       .  S
O226        C236   1.281       .  A
O227       Ni233   1.915   1_655  S
O227        C237   1.281       .  A
O228       Ni233   1.921       .  S
O228        C238   1.282       .  A
O229       Ni234   1.911       .  S
O229        C238   1.280       .  A
O230       Ni234   1.920   1_655  S
O230        C237   1.282       .  A
O231       Ni234   1.915       .  S
O231        C236   1.281       .  A
O232       Ni234   1.916   1_655  S
O232        C235   1.281       .  A
Ni233      Ni234   2.390       .  S
C235       C1079   1.476       .  S
C236       C1046   1.469       .  S
C237       C1066   1.475       .  S
C238       C1059   1.472       .  S
C239        C240   1.408       .  A
C239        C244   1.408       .  A
C239       C1039   1.492       .  S
C240        C241   1.401       .  A
C240        H245   1.083       .  S
C241        C242   1.401       .  A
C241       C1406   1.478       .  S
C242        C243   1.404       .  A
C242        H246   1.084       .  S
C243        C244   1.406       .  A
C243       C1069   1.488       .  S
C244        H247   1.081       .  S
C248        C249   1.403       .  A
C248        C253   1.404       .  A
C248       C1016   1.486       .  S
C249        C250   1.405       .  A
C249        H254   1.083       .  S
C250        C251   1.406       .  A
C250       C1026   1.490       .  S
C251        C252   1.406       .  A
C251        H255   1.082       .  S
C252        C253   1.406       .  A
C252       C1006   1.486       .  S
C253        H256   1.083       .  S
O257       Ni265   1.920       .  S
O257        C267   1.282       .  A
O258       Ni265   1.920   1_554  S
O258        C268   1.282       .  A
O259       Ni265   1.921       .  S
O259        C269   1.282       .  A
O260       Ni265   1.921   1_554  S
O260        C270   1.282       .  A
O261       Ni266   1.913   1_554  S
O261        C270   1.281       .  A
O262       Ni266   1.913       .  S
O262        C269   1.281       .  A
O263       Ni266   1.915   1_554  S
O263        C268   1.281       .  A
O264       Ni266   1.915       .  S
O264        C267   1.281       .  A
Ni265      Ni266   2.390       .  S
C267       C1009   1.473       .  S
C268        C986   1.474       .  S
C269       C1036   1.476       .  S
C270        C996   1.477       .  S
C271        C272   1.405       .  A
C271        C276   1.406       .  A
C271        C966   1.492       .  S
C272        C273   1.405       .  A
C272        H277   1.083       .  S
C273        C274   1.406       .  A
C273        C999   1.491       .  S
C274        C275   1.406       .  A
C274        H278   1.083       .  S
C275        C276   1.405       .  A
C275        C976   1.486       .  S
C276        H279   1.082       .  S
C280        C281   1.403       .  A
C280        C285   1.402       .  A
C280        C946   1.484       .  S
C281        C282   1.406       .  A
C281        H286   1.083       .  S
C282        C283   1.407       .  A
C282       C1119   1.493       .  S
C283        C284   1.407       .  A
C283        H287   1.082       .  S
C284        C285   1.406       .  A
C284        C956   1.489       .  S
C285        H288   1.082       .  S
C289        C290   1.404       .  A
C289        C294   1.403       .  A
C289        C926   1.486       .  S
C290        C291   1.407       .  A
C290        H295   1.083       .  S
C291        C292   1.407       .  A
C291       C1236   1.493       .  S
C292        C293   1.407       .  A
C292        H296   1.082       .  S
C293        C294   1.404       .  A
C293        C936   1.491       .  S
C294        H297   1.082       .  S
C298        C299   1.406       .  A
C298        C303   1.408       .  A
C298        C896   1.494       .  S
C299        C300   1.405       .  A
C299        H304   1.082       .  S
C300        C301   1.404       .  A
C300        C916   1.489       .  S
C301        C302   1.406       .  A
C301        H305   1.081       .  S
C302        C303   1.408       .  A
C302        C909   1.493       .  S
C303        H306   1.081       .  S
C307        C308   1.404       .  A
C307        C312   1.405       .  A
C307       C1109   1.489       .  S
C308        C309   1.404       .  A
C308        H313   1.082       .  S
C309        C310   1.407       .  A
C309       C1299   1.492       .  S
C310        C311   1.406       .  A
C310        H314   1.083       .  S
C311        C312   1.404       .  A
C311        C889   1.484       .  S
C312        H315   1.083       .  S
C316        C317   1.407       .  A
C316        C321   1.407       .  A
C316        C856   1.491       .  S
C317        C318   1.403       .  A
C317        H322   1.083       .  S
C318        C319   1.403       .  A
C318        C876   1.483       .  S
C319        C320   1.402       .  A
C319        H323   1.083       .  S
C320        C321   1.405       .  A
C320        C866   1.484       .  S
C321        H324   1.082       .  S
O325       Ni333   1.914       .  S
O325        C335   1.281       .  A
O326       Ni333   1.920   1_565  S
O326        C336   1.281       .  A
O327       Ni333   1.914       .  S
O327        C337   1.281       .  A
O328       Ni333   1.921   1_565  S
O328        C338   1.282       .  A
O329       Ni334   1.912   1_565  S
O329        C338   1.280       .  A
O330       Ni334   1.921       .  S
O330        C337   1.282       .  A
O331       Ni334   1.914   1_565  S
O331        C336   1.280       .  A
O332       Ni334   1.921       .  S
O332        C335   1.282       .  A
Ni333      Ni334   2.390       .  S
C335        C899   1.475       .  S
C336        C886   1.471       .  S
C337        C846   1.477       .  S
C338        C859   1.475       .  S
C339        C340   1.406       .  A
C339        C344   1.408       .  A
C339        C826   1.487       .  S
C340        C341   1.402       .  A
C340        H345   1.083       .  S
C341        C342   1.400       .  A
C341       C1179   1.479       .  S
C342        C343   1.403       .  A
C342        H346   1.083       .  S
C343        C344   1.407       .  A
C343        C839   1.487       .  S
C344        H347   1.083       .  S
C348        C349   1.403       .  A
C348        C353   1.404       .  A
C348        C816   1.485       .  S
C349        C350   1.404       .  A
C349        H354   1.084       .  S
C350        C351   1.404       .  A
C350       C1056   1.486       .  S
C351        C352   1.406       .  A
C351        H355   1.083       .  S
C352        C353   1.406       .  A
C352        C809   1.488       .  S
C353        H356   1.082       .  S
C357        C358   1.404       .  A
C357        C362   1.406       .  A
C357        C776   1.491       .  S
C358        C359   1.404       .  A
C358        H363   1.083       .  S
C359        C360   1.404       .  A
C359        C796   1.488       .  S
C360        C361   1.406       .  A
C360        H364   1.083       .  S
C361        C362   1.408       .  A
C361        C789   1.492       .  S
C362        H365   1.082       .  S
C366        C367   1.408       .  A
C366        C371   1.407       .  A
C366       C1229   1.491       .  S
C367        C368   1.407       .  A
C367        H372   1.082       .  S
C368        C369   1.404       .  A
C368        C989   1.488       .  S
C369        C370   1.402       .  A
C369        H373   1.084       .  S
C370        C371   1.402       .  A
C370        C769   1.479       .  S
C371        H374   1.083       .  S
C375        C376   1.404       .  A
C375        C380   1.403       .  A
C375        C746   1.485       .  S
C376        C377   1.407       .  A
C376        H381   1.083       .  S
C377        C378   1.407       .  A
C377        C756   1.492       .  S
C378        C379   1.407       .  A
C378        H382   1.081       .  S
C379        C380   1.404       .  A
C379        C739   1.491       .  S
C380        H383   1.082       .  S
O384       Ni392   1.920   1_655  S
O384        C394   1.282       .  A
O385       Ni392   1.922       .  S
O385        C395   1.282       .  A
O386       Ni392   1.914   1_655  S
O386        C396   1.280       .  A
O387       Ni392   1.914       .  S
O387        C397   1.281       .  A
O388       Ni393   1.922       .  S
O388        C397   1.282       .  A
O389       Ni393   1.923   1_655  S
O389        C396   1.282       .  A
O390       Ni393   1.912       .  S
O390        C395   1.280       .  A
O391       Ni393   1.912   1_655  S
O391        C394   1.280       .  A
Ni392      Ni393   2.388       .  S
C394        C736   1.475       .  S
C395        C729   1.474       .  S
C396        C766   1.469       .  S
C397        C779   1.477       .  S
C398        C399   1.404       .  A
C398        C403   1.405       .  A
C398        C719   1.489       .  S
C399        C400   1.406       .  A
C399        H404   1.082       .  S
C400        C401   1.407       .  A
C400       C1286   1.488       .  S
C401        C402   1.406       .  A
C401        H405   1.083       .  S
C402        C403   1.405       .  A
C402        C706   1.489       .  S
C403        H406   1.083       .  S
C407        C408   1.407       .  A
C407        C412   1.408       .  A
C407        C849   1.494       .  S
C408        C409   1.406       .  A
C408        H413   1.082       .  S
C409        C410   1.404       .  A
C409        C726   1.489       .  S
C410        C411   1.405       .  A
C410        H414   1.082       .  S
C411        C412   1.405       .  A
C411        C696   1.490       .  S
C412        H415   1.082       .  S
C416        C417   1.405       .  A
C416        C421   1.406       .  A
C416        C666   1.490       .  S
C417        C418   1.405       .  A
C417        H422   1.082       .  S
C418        C419   1.406       .  A
C418        C689   1.490       .  S
C419        C420   1.407       .  A
C419        H423   1.081       .  S
C420        C421   1.406       .  A
C420        C679   1.493       .  S
C421        H424   1.082       .  S
C425        C426   1.405       .  A
C425        C430   1.406       .  A
C425       C1169   1.487       .  S
C426        C427   1.403       .  A
C426        H431   1.083       .  S
C427        C428   1.404       .  A
C427       C1049   1.484       .  S
C428        C429   1.405       .  A
C428        H432   1.083       .  S
C429        C430   1.406       .  A
C429        C656   1.489       .  S
C430        H433   1.082       .  S
C434        C435   1.405       .  A
C434        C439   1.406       .  A
C434        C639   1.491       .  S
C435        C436   1.405       .  A
C435        H440   1.082       .  S
C436        C437   1.406       .  A
C436        C646   1.490       .  S
C437        C438   1.406       .  A
C437        H441   1.082       .  S
C438        C439   1.407       .  A
C438        C626   1.492       .  S
C439        H442   1.081       .  S
O443       Ni451   1.919       .  S
O443        C453   1.282       .  A
O444       Ni451   1.912   1_554  S
O444        C454   1.280       .  A
O445       Ni451   1.921       .  S
O445        C455   1.282       .  A
O446       Ni451   1.913   1_554  S
O446        C456   1.280       .  A
O447       Ni452   1.920   1_554  S
O447        C456   1.282       .  A
O448       Ni452   1.913       .  S
O448        C455   1.281       .  A
O449       Ni452   1.920   1_554  S
O449        C454   1.282       .  A
O450       Ni452   1.913       .  S
O450        C453   1.280       .  A
Ni451      Ni452   2.390       .  S
C453        C659   1.473       .  S
C454        C669   1.473       .  S
C455        C629   1.475       .  S
C456        C699   1.473       .  S
O457       Ni465   1.912       .  S
O457        C467   1.280       .  A
O458       Ni465   1.912       .  S
O458        C468   1.280       .  A
O459       Ni465   1.921       .  S
O459        C469   1.282       .  A
O460       Ni465   1.921       .  S
O460        C470   1.282       .  A
O461       Ni466   1.914       .  S
O461        C470   1.281       .  A
O462       Ni466   1.915       .  S
O462        C469   1.281       .  A
O463       Ni466   1.921       .  S
O463        C468   1.282       .  A
O464       Ni466   1.921       .  S
O464        C467   1.282       .  A
Ni465      Ni466   2.388       .  S
C467        C949   1.472       .  S
C468        C799   1.476       .  S
C469        C709   1.477       .  S
C470        C676   1.477       .  S
O471       Ni479   1.919       .  S
O471        C481   1.282       .  A
O472       Ni479   1.913       .  S
O472        C482   1.280       .  A
O473       Ni479   1.914       .  S
O473        C483   1.280       .  A
O474       Ni479   1.921       .  S
O474        C484   1.283       .  A
O475       Ni480   1.913       .  S
O475        C484   1.280       .  A
O476       Ni480   1.921       .  S
O476        C483   1.282       .  A
O477       Ni480   1.920       .  S
O477        C482   1.282       .  A
O478       Ni480   1.915       .  S
O478        C481   1.280       .  A
Ni479      Ni480   2.390       .  S
C481        C686   1.474       .  S
C482        C929   1.471       .  S
C483        C906   1.477       .  S
C484        C969   1.478       .  S
O485       Ni493   1.915       .  S
O485        C495   1.281       .  A
O486       Ni493   1.915       .  S
O486        C496   1.281       .  A
O487       Ni493   1.911       .  S
O487        C497   1.280       .  A
O488       Ni493   1.918       .  S
O488        C498   1.282       .  A
O489       Ni494   1.916       .  S
O489        C498   1.281       .  A
O490       Ni494   1.923       .  S
O490        C497   1.283       .  A
O491       Ni494   1.916       .  S
O491        C496   1.281       .  A
O492       Ni494   1.916       .  S
O492        C495   1.281       .  A
Ni493      Ni494   2.390       .  S
C495        C919   1.471       .  S
C496        C806   1.474       .  S
C497        C786   1.476       .  S
C498        C829   1.475       .  S
O499       Ni507   1.920       .  S
O499        C509   1.282       .  A
O500       Ni507   1.920       .  S
O500        C510   1.281       .  A
O501       Ni507   1.919       .  S
O501        C511   1.281       .  A
O502       Ni507   1.919       .  S
O502        C512   1.281       .  A
O503       Ni508   1.911       .  S
O503        C512   1.281       .  A
O504       Ni508   1.912       .  S
O504        C511   1.280       .  A
O505       Ni508   1.913       .  S
O505        C510   1.280       .  A
O506       Ni508   1.912       .  S
O506        C509   1.280       .  A
Ni507      Ni508   2.391       .  S
C509        C716   1.474       .  S
C510       C1209   1.472       .  S
C511        C879   1.469       .  S
C512       C1359   1.473       .  S
O513       Ni521   1.922       .  S
O513        C523   1.282       .  A
O514       Ni521   1.921       .  S
O514        C524   1.282       .  A
O515       Ni521   1.913       .  S
O515        C525   1.281       .  A
O516       Ni521   1.913       .  S
O516        C526   1.280       .  A
O517       Ni522   1.923       .  S
O517        C526   1.282       .  A
O518       Ni522   1.921       .  S
O518        C525   1.282       .  A
O519       Ni522   1.911       .  S
O519        C524   1.280       .  A
O520       Ni522   1.912       .  S
O520        C523   1.280       .  A
Ni521      Ni522   2.387       .  S
C523        C939   1.476       .  S
C524       C1086   1.477       .  S
C525        C759   1.477       .  S
C526       C1379   1.476       .  S
O527       Ni535   1.912       .  S
O527        C537   1.280       .  A
O528       Ni535   1.918       .  S
O528        C538   1.281       .  A
O529       Ni535   1.913       .  S
O529        C539   1.280       .  A
O530       Ni535   1.921       .  S
O530        C540   1.282       .  A
O531       Ni536   1.912       .  S
O531        C540   1.280       .  A
O532       Ni536   1.918       .  S
O532        C539   1.281       .  A
O533       Ni536   1.912       .  S
O533        C538   1.281       .  A
O534       Ni536   1.921       .  S
O534        C537   1.282       .  A
Ni535      Ni536   2.390       .  S
C537        C649   1.473       .  S
C538       C1346   1.474       .  S
C539        C819   1.471       .  S
C540       C1139   1.475       .  S
O541       Ni549   1.912       .  S
O541        C551   1.280       .  A
O542       Ni549   1.920       .  S
O542        C552   1.282       .  A
O543       Ni549   1.921       .  S
O543        C553   1.282       .  A
O544       Ni549   1.914       .  S
O544        C554   1.280       .  A
O545       Ni550   1.920       .  S
O545        C554   1.282       .  A
O546       Ni550   1.914       .  S
O546        C553   1.280       .  A
O547       Ni550   1.911       .  S
O547        C552   1.280       .  A
O548       Ni550   1.918       .  S
O548        C551   1.282       .  A
Ni549      Ni550   2.391       .  S
C551        C749   1.470       .  S
C552       C1389   1.474       .  S
C553        C979   1.474       .  S
C554       C1326   1.475       .  S
O555       Ni563   1.920       .  S
O555        C565   1.282       .  A
O556       Ni563   1.915       .  S
O556        C566   1.281       .  A
O557       Ni563   1.913       .  S
O557        C567   1.280       .  A
O558       Ni563   1.920       .  S
O558        C568   1.282       .  A
O559       Ni564   1.913       .  S
O559        C568   1.280       .  A
O560       Ni564   1.919       .  S
O560        C567   1.282       .  A
O561       Ni564   1.921       .  S
O561        C566   1.282       .  A
O562       Ni564   1.914       .  S
O562        C565   1.280       .  A
Ni563      Ni564   2.390       .  S
C565        C636   1.474       .  S
C566       C1366   1.477       .  S
C567        C836   1.474       .  S
C568       C1019   1.474       .  S
O569       Ni577   1.911       .  S
O569        C579   1.280       .  A
O570       Ni577   1.912       .  S
O570        C580   1.280       .  A
O571       Ni577   1.920       .  S
O571        C581   1.282       .  A
O572       Ni577   1.922       .  S
O572        C582   1.282       .  A
O573       Ni578   1.912       .  S
O573        C582   1.280       .  A
O574       Ni578   1.912       .  S
O574        C581   1.281       .  A
O575       Ni578   1.921       .  S
O575        C580   1.282       .  A
O576       Ni578   1.920       .  S
O576        C579   1.282       .  A
Ni577      Ni578   2.388       .  S
C579        C869   1.471       .  S
C580       C1399   1.475       .  S
C581        C959   1.476       .  S
C582       C1256   1.475       .  S
O583       Ni591   1.918       .  S
O583        C593   1.282       .  A
O584       Ni591   1.918       .  S
O584        C594   1.281       .  A
O585       Ni591   1.914       .  S
O585        C595   1.280       .  A
O586       Ni591   1.922       .  S
O586        C596   1.282       .  A
O587       Ni592   1.912       .  S
O587        C596   1.280       .  A
O588       Ni592   1.918       .  S
O588        C595   1.281       .  A
O589       Ni592   1.915       .  S
O589        C594   1.281       .  A
O590       Ni592   1.916       .  S
O590        C593   1.281       .  A
Ni591      Ni592   2.391       .  S
C593       C1549   1.473       .  S
C594       C1339   1.474       .  S
C595       C1519   1.466       .  S
C596       C1269   1.470       .  S
O597       Ni605   1.916       .  S
O597        C607   1.280       .  A
O598       Ni605   1.914       .  S
O598        C608   1.281       .  A
O599       Ni605   1.922       .  S
O599        C609   1.282       .  A
O600       Ni605   1.915       .  S
O600        C610   1.281       .  A
O601       Ni606   1.917       .  S
O601        C610   1.281       .  A
O602       Ni606   1.910       .  S
O602        C609   1.280       .  A
O603       Ni606   1.917       .  S
O603        C608   1.281       .  A
O604       Ni606   1.917       .  S
O604        C607   1.281       .  A
Ni605      Ni606   2.390       .  S
C607       C1506   1.472       .  S
C608       C1029   1.476       .  S
C609       C1579   1.475       .  S
C610       C1096   1.476       .  S
O611       Ni619   1.914       .  S
O611        C621   1.281       .  A
O612       Ni619   1.914       .  S
O612        C622   1.281       .  A
O613       Ni619   1.914       .  S
O613        C623   1.281       .  A
O614       Ni619   1.914       .  S
O614        C624   1.281       .  A
O615       Ni620   1.918       .  S
O615        C624   1.281       .  A
O616       Ni620   1.917       .  S
O616        C623   1.281       .  A
O617       Ni620   1.922       .  S
O617        C622   1.282       .  A
O618       Ni620   1.921       .  S
O618        C621   1.282       .  A
Ni619      Ni620   2.390       .  S
C621       C1539   1.477       .  S
C622       C1146   1.477       .  S
C623       C1569   1.473       .  S
C624       C1216   1.472       .  S
C625        C626   1.409       .  A
C625        C630   1.399       .  A
C625        H632   1.083       .  S
C626        C627   1.411       .  A
C627        C628   1.397       .  A
C627        F634   1.357       .  S
C628        C629   1.402       .  A
C628        H633   1.084       .  S
C629        C630   1.404       .  A
C630        F631   1.357       .  S
C635        C636   1.403       .  A
C635        C640   1.399       .  A
C635        H642   1.083       .  S
C636        C637   1.404       .  A
C637        C638   1.397       .  A
C637        F644   1.358       .  S
C638        C639   1.408       .  A
C638        H643   1.083       .  S
C639        C640   1.410       .  A
C640        F641   1.357       .  S
C645        C646   1.407       .  A
C645        C650   1.396       .  A
C645        H652   1.083       .  S
C646        C647   1.411       .  A
C647        C648   1.399       .  A
C647        F654   1.357       .  S
C648        C649   1.402       .  A
C648        H653   1.083       .  S
C649        C650   1.404       .  A
C650        F651   1.358       .  S
C655        C656   1.408       .  A
C655        C660   1.398       .  A
C655        H662   1.083       .  S
C656        C657   1.410       .  A
C657        C658   1.397       .  A
C657        F664   1.357       .  S
C658        C659   1.402       .  A
C658        H663   1.083       .  S
C659        C660   1.404       .  A
C660        F661   1.358       .  S
C665        C666   1.407       .  A
C665        C670   1.397       .  A
C665        H672   1.083       .  S
C666        C667   1.411       .  A
C667        C668   1.399       .  A
C667        F674   1.357       .  S
C668        C669   1.402       .  A
C668        H673   1.083       .  S
C669        C670   1.405       .  A
C670        F671   1.358       .  S
C675        C676   1.402       .  A
C675        C680   1.397       .  A
C675        H682   1.084       .  S
C676        C677   1.405       .  A
C677        C678   1.400       .  A
C677        F684   1.357       .  S
C678        C679   1.409       .  A
C678        H683   1.083       .  S
C679        C680   1.411       .  A
C680        F681   1.357       .  S
C685        C686   1.403       .  A
C685        C690   1.399       .  A
C685        H692   1.083       .  S
C686        C687   1.404       .  A
C687        C688   1.397       .  A
C687        F694   1.358       .  S
C688        C689   1.408       .  A
C688        H693   1.083       .  S
C689        C690   1.410       .  A
C690        F691   1.357       .  S
C695        C696   1.407       .  A
C695        C700   1.395       .  A
C695        H702   1.083       .  S
C696        C697   1.411       .  A
C697        C698   1.400       .  A
C697        F704   1.357       .  S
C698        C699   1.403       .  A
C698        H703   1.083       .  S
C699        C700   1.404       .  A
C700        F701   1.358       .  S
C705        C706   1.407       .  A
C705        C710   1.401       .  A
C705        H712   1.083       .  S
C706        C707   1.410       .  A
C707        C708   1.396       .  A
C707        F714   1.358       .  S
C708        C709   1.402       .  A
C708        H713   1.083       .  S
C709        C710   1.406       .  A
C710        F711   1.357       .  S
C715        C716   1.403       .  A
C715        C720   1.400       .  A
C715        H722   1.083       .  S
C716        C717   1.404       .  A
C717        C718   1.395       .  A
C717        F724   1.358       .  S
C718        C719   1.407       .  A
C718        H723   1.083       .  S
C719        C720   1.411       .  A
C720        F721   1.357       .  S
C725        C726   1.406       .  A
C725        C730   1.396       .  A
C725        H732   1.083       .  S
C726        C727   1.411       .  A
C727        C728   1.400       .  A
C727        F734   1.357       .  S
C728        C729   1.402       .  A
C728        H733   1.083       .  S
C729        C730   1.405       .  A
C730        F731   1.358       .  S
C735        C736   1.402       .  A
C735        C740   1.398       .  A
C735        H742   1.083       .  S
C736        C737   1.406       .  A
C737        C738   1.396       .  A
C737        F744   1.358       .  S
C738        C739   1.407       .  A
C738        H743   1.083       .  S
C739        C740   1.412       .  A
C740        F741   1.357       .  S
C745        C746   1.407       .  A
C745        C750   1.396       .  A
C745        H752   1.083       .  S
C746        C747   1.409       .  A
C747        C748   1.399       .  A
C747        F754   1.357       .  S
C748        C749   1.402       .  A
C748        H753   1.084       .  S
C749        C750   1.403       .  A
C750        F751   1.358       .  S
C755        C756   1.407       .  A
C755        C760   1.396       .  A
C755        H762   1.083       .  S
C756        C757   1.411       .  A
C757        C758   1.400       .  A
C757        F764   1.357       .  S
C758        C759   1.403       .  A
C758        H763   1.083       .  S
C759        C760   1.405       .  A
C760        F761   1.358       .  S
C765        C766   1.401       .  A
C765        C770   1.396       .  A
C765        H772   1.084       .  S
C766        C767   1.404       .  A
C767        C768   1.401       .  A
C767        F774   1.357       .  S
C768        C769   1.405       .  A
C768        H773   1.083       .  S
C769        C770   1.406       .  A
C770        F771   1.358       .  S
C775        C776   1.408       .  A
C775        C780   1.401       .  A
C775        H782   1.083       .  S
C776        C777   1.411       .  A
C777        C778   1.396       .  A
C777        F784   1.358       .  S
C778        C779   1.402       .  A
C778        H783   1.084       .  S
C779        C780   1.406       .  A
C780        F781   1.357       .  S
C785        C786   1.403       .  A
C785        C790   1.397       .  A
C785        H792   1.084       .  S
C786        C787   1.404       .  A
C787        C788   1.400       .  A
C787        F794   1.357       .  S
C788        C789   1.409       .  A
C788        H793   1.083       .  S
C789        C790   1.410       .  A
C790        F791   1.357       .  S
C795        C796   1.406       .  A
C795        C800   1.395       .  A
C795        H802   1.083       .  S
C796        C797   1.410       .  A
C797        C798   1.400       .  A
C797        F804   1.357       .  S
C798        C799   1.404       .  A
C798        H803   1.083       .  S
C799        C800   1.406       .  A
C800        F801   1.358       .  S
C805        C806   1.402       .  A
C805        C810   1.396       .  A
C805        H812   1.083       .  S
C806        C807   1.405       .  A
C807        C808   1.398       .  A
C807        F814   1.358       .  S
C808        C809   1.407       .  A
C808        H813   1.083       .  S
C809        C810   1.411       .  A
C810        F811   1.357       .  S
C815        C816   1.406       .  A
C815        C820   1.395       .  A
C815        H822   1.083       .  S
C816        C817   1.409       .  A
C817        C818   1.399       .  A
C817        F824   1.357       .  S
C818        C819   1.403       .  A
C818        H823   1.083       .  S
C819        C820   1.403       .  A
C820        F821   1.358       .  S
C825        C826   1.407       .  A
C825        C830   1.397       .  A
C825        H832   1.083       .  S
C826        C827   1.409       .  A
C827        C828   1.400       .  A
C827        F834   1.357       .  S
C828        C829   1.404       .  A
C828        H833   1.083       .  S
C829        C830   1.405       .  A
C830        F831   1.358       .  S
C835        C836   1.402       .  A
C835        C840   1.396       .  A
C835        H842   1.084       .  S
C836        C837   1.406       .  A
C837        C838   1.399       .  A
C837        F844   1.357       .  S
C838        C839   1.406       .  A
C838        H843   1.083       .  S
C839        C840   1.411       .  A
C840        F841   1.358       .  S
C845        C846   1.403       .  A
C845        C850   1.400       .  A
C845        H852   1.083       .  S
C846        C847   1.405       .  A
C847        C848   1.396       .  A
C847        F854   1.358       .  S
C848        C849   1.408       .  A
C848        H853   1.082       .  S
C849        C850   1.412       .  A
C850        F851   1.357       .  S
C855        C856   1.407       .  A
C855        C860   1.396       .  A
C855        H862   1.083       .  S
C856        C857   1.411       .  A
C857        C858   1.400       .  A
C857        F864   1.357       .  S
C858        C859   1.403       .  A
C858        H863   1.083       .  S
C859        C860   1.405       .  A
C860        F861   1.358       .  S
C865        C866   1.405       .  A
C865        C870   1.396       .  A
C865        H872   1.083       .  S
C866        C867   1.410       .  A
C867        C868   1.399       .  A
C867        F874   1.357       .  S
C868        C869   1.402       .  A
C868        H873   1.083       .  S
C869        C870   1.405       .  A
C870        F871   1.358       .  S
C875        C876   1.405       .  A
C875        C880   1.395       .  A
C875        H882   1.083       .  S
C876        C877   1.408       .  A
C877        C878   1.400       .  A
C877        F884   1.357       .  S
C878        C879   1.403       .  A
C878        H883   1.083       .  S
C879        C880   1.403       .  A
C880        F881   1.358       .  S
C885        C886   1.402       .  A
C885        C890   1.399       .  A
C885        H892   1.084       .  S
C886        C887   1.405       .  A
C887        C888   1.397       .  A
C887        F894   1.358       .  S
C888        C889   1.405       .  A
C888        H893   1.083       .  S
C889        C890   1.409       .  A
C890        F891   1.358       .  S
C895        C896   1.409       .  A
C895        C900   1.399       .  A
C895        H902   1.083       .  S
C896        C897   1.412       .  A
C897        C898   1.398       .  A
C897        F904   1.357       .  S
C898        C899   1.402       .  A
C898        H903   1.084       .  S
C899        C900   1.404       .  A
C900        F901   1.358       .  S
C905        C906   1.401       .  A
C905        C910   1.397       .  A
C905        H912   1.084       .  S
C906        C907   1.406       .  A
C907        C908   1.399       .  A
C907        F914   1.358       .  S
C908        C909   1.408       .  A
C908        H913   1.083       .  S
C909        C910   1.412       .  A
C910        F911   1.357       .  S
C915        C916   1.407       .  A
C915        C920   1.396       .  A
C915        H922   1.083       .  S
C916        C917   1.411       .  A
C917        C918   1.399       .  A
C917        F924   1.357       .  S
C918        C919   1.402       .  A
C918        H923   1.083       .  S
C919        C920   1.403       .  A
C920        F921   1.358       .  S
C925        C926   1.406       .  A
C925        C930   1.399       .  A
C925        H932   1.083       .  S
C926        C927   1.410       .  A
C927        C928   1.397       .  A
C927        F934   1.358       .  S
C928        C929   1.401       .  A
C928        H933   1.084       .  S
C929        C930   1.405       .  A
C930        F931   1.358       .  S
C935        C936   1.407       .  A
C935        C940   1.397       .  A
C935        H942   1.083       .  S
C936        C937   1.412       .  A
C937        C938   1.399       .  A
C937        F944   1.357       .  S
C938        C939   1.402       .  A
C938        H943   1.083       .  S
C939        C940   1.406       .  A
C940        F941   1.358       .  S
C945        C946   1.405       .  A
C945        C950   1.395       .  A
C945        H952   1.083       .  S
C946        C947   1.408       .  A
C947        C948   1.401       .  A
C947        F954   1.357       .  S
C948        C949   1.403       .  A
C948        H953   1.083       .  S
C949        C950   1.404       .  A
C950        F951   1.358       .  S
C955        C956   1.408       .  A
C955        C960   1.399       .  A
C955        H962   1.083       .  S
C956        C957   1.410       .  A
C957        C958   1.396       .  A
C957        F964   1.357       .  S
C958        C959   1.403       .  A
C958        H963   1.084       .  S
C959        C960   1.405       .  A
C960        F961   1.357       .  S
C965        C966   1.408       .  A
C965        C970   1.397       .  A
C965        H972   1.083       .  S
C966        C967   1.410       .  A
C967        C968   1.399       .  A
C967        F974   1.357       .  S
C968        C969   1.405       .  A
C968        H973   1.083       .  S
C969        C970   1.405       .  A
C970        F971   1.358       .  S
C975        C976   1.406       .  A
C975        C980   1.398       .  A
C975        H982   1.083       .  S
C976        C977   1.409       .  A
C977        C978   1.399       .  A
C977        F984   1.357       .  S
C978        C979   1.403       .  A
C978        H983   1.084       .  S
C979        C980   1.405       .  A
C980        F981   1.358       .  S
C985        C986   1.402       .  A
C985        C990   1.400       .  A
C985        H992   1.083       .  S
C986        C987   1.405       .  A
C987        C988   1.397       .  A
C987        F994   1.358       .  S
C988        C989   1.406       .  A
C988        H993   1.083       .  S
C989        C990   1.410       .  A
C990        F991   1.357       .  S
C995        C996   1.402       .  A
C995       C1000   1.395       .  A
C995       H1002   1.084       .  S
C996        C997   1.406       .  A
C997        C998   1.402       .  A
C997       F1004   1.357       .  S
C998        C999   1.408       .  A
C998       H1003   1.083       .  S
C999       C1000   1.411       .  A
C1000      F1001   1.357       .  S
C1005      C1006   1.406       .  A
C1005      C1010   1.397       .  A
C1005      H1012   1.083       .  S
C1006      C1007   1.410       .  A
C1007      C1008   1.399       .  A
C1007      F1014   1.357       .  S
C1008      C1009   1.402       .  A
C1008      H1013   1.083       .  S
C1009      C1010   1.405       .  A
C1010      F1011   1.358       .  S
C1015      C1016   1.406       .  A
C1015      C1020   1.400       .  A
C1015      H1022   1.083       .  S
C1016      C1017   1.410       .  A
C1017      C1018   1.396       .  A
C1017      F1024   1.358       .  S
C1018      C1019   1.401       .  A
C1018      H1023   1.084       .  S
C1019      C1020   1.406       .  A
C1020      F1021   1.358       .  S
C1025      C1026   1.408       .  A
C1025      C1030   1.395       .  A
C1025      H1032   1.083       .  S
C1026      C1027   1.411       .  A
C1027      C1028   1.400       .  A
C1027      F1034   1.357       .  S
C1028      C1029   1.404       .  A
C1028      H1033   1.083       .  S
C1029      C1030   1.405       .  A
C1030      F1031   1.358       .  S
C1035      C1036   1.403       .  A
C1035      C1040   1.400       .  A
C1035      H1042   1.083       .  S
C1036      C1037   1.405       .  A
C1037      C1038   1.396       .  A
C1037      F1044   1.358       .  S
C1038      C1039   1.407       .  A
C1038      H1043   1.083       .  S
C1039      C1040   1.412       .  A
C1040      F1041   1.357       .  S
C1045      C1046   1.401       .  A
C1045      C1050   1.396       .  A
C1045      H1052   1.084       .  S
C1046      C1047   1.404       .  A
C1047      C1048   1.399       .  A
C1047      F1054   1.357       .  S
C1048      C1049   1.407       .  A
C1048      H1053   1.083       .  S
C1049      C1050   1.409       .  A
C1050      F1051   1.358       .  S
C1055      C1056   1.406       .  A
C1055      C1060   1.395       .  A
C1055      H1062   1.083       .  S
C1056      C1057   1.409       .  A
C1057      C1058   1.400       .  A
C1057      F1064   1.357       .  S
C1058      C1059   1.403       .  A
C1058      H1063   1.083       .  S
C1059      C1060   1.405       .  A
C1060      F1061   1.358       .  S
C1065      C1066   1.403       .  A
C1065      C1070   1.398       .  A
C1065      H1072   1.084       .  S
C1066      C1067   1.405       .  A
C1067      C1068   1.398       .  A
C1067      F1074   1.358       .  S
C1068      C1069   1.407       .  A
C1068      H1073   1.083       .  S
C1069      C1070   1.410       .  A
C1070      F1071   1.357       .  S
C1075      C1076   1.407       .  A
C1075      C1080   1.400       .  A
C1075      H1082   1.083       .  S
C1076      C1077   1.412       .  A
C1077      C1078   1.395       .  A
C1077      F1084   1.357       .  S
C1078      C1079   1.401       .  A
C1078      H1083   1.084       .  S
C1079      C1080   1.406       .  A
C1080      F1081   1.357       .  S
C1085      C1086   1.404       .  A
C1085      C1090   1.400       .  A
C1085      H1092   1.083       .  S
C1086      C1087   1.406       .  A
C1087      C1088   1.394       .  A
C1087      F1094   1.358       .  S
C1088      C1089   1.407       .  A
C1088      H1093   1.083       .  S
C1089      C1090   1.411       .  A
C1090      F1091   1.357       .  S
C1095      C1096   1.403       .  A
C1095      C1100   1.398       .  A
C1095      H1102   1.083       .  S
C1096      C1097   1.405       .  A
C1097      C1098   1.397       .  A
C1097      F1104   1.358       .  S
C1098      C1099   1.408       .  A
C1098      H1103   1.083       .  S
C1099      C1100   1.411       .  A
C1100      F1101   1.357       .  S
C1105      C1106   1.401       .  A
C1105      C1110   1.394       .  A
C1105      H1112   1.084       .  S
C1106      C1107   1.406       .  A
C1107      C1108   1.400       .  A
C1107      F1114   1.357       .  S
C1108      C1109   1.408       .  A
C1108      H1113   1.083       .  S
C1109      C1110   1.411       .  A
C1110      F1111   1.357       .  S
C1115      C1116   1.403       .  A
C1115      C1120   1.400       .  A
C1115      H1122   1.083       .  S
C1116      C1117   1.406       .  A
C1117      C1118   1.396       .  A
C1117      F1124   1.358       .  S
C1118      C1119   1.408       .  A
C1118      H1123   1.083       .  S
C1119      C1120   1.412       .  A
C1120      F1121   1.357       .  S
C1125      C1126   1.406       .  A
C1125      C1130   1.396       .  A
C1125      H1132   1.083       .  S
C1126      C1127   1.410       .  A
C1127      C1128   1.400       .  A
C1127      F1134   1.357       .  S
C1128      C1129   1.403       .  A
C1128      H1133   1.083       .  S
C1129      C1130   1.405       .  A
C1130      F1131   1.358       .  S
C1135      C1136   1.407       .  A
C1135      C1140   1.396       .  A
C1135      H1142   1.083       .  S
C1136      C1137   1.412       .  A
C1137      C1138   1.399       .  A
C1137      F1144   1.357       .  S
C1138      C1139   1.402       .  A
C1138      H1143   1.084       .  S
C1139      C1140   1.406       .  A
C1140      F1141   1.358       .  S
C1145      C1146   1.404       .  A
C1145      C1150   1.401       .  A
C1145      H1152   1.083       .  S
C1146      C1147   1.405       .  A
C1147      C1148   1.396       .  A
C1147      F1154   1.358       .  S
C1148      C1149   1.408       .  A
C1148      H1153   1.083       .  S
C1149      C1150   1.411       .  A
C1150      F1151   1.357       .  S
C1155      C1156   1.408       .  A
C1155      C1160   1.399       .  A
C1155      H1162   1.083       .  S
C1156      C1157   1.411       .  A
C1157      C1158   1.397       .  A
C1157      F1164   1.357       .  S
C1158      C1159   1.402       .  A
C1158      H1163   1.083       .  S
C1159      C1160   1.404       .  A
C1160      F1161   1.358       .  S
C1165      C1166   1.403       .  A
C1165      C1170   1.399       .  A
C1165      H1172   1.083       .  S
C1166      C1167   1.404       .  A
C1167      C1168   1.396       .  A
C1167      F1174   1.358       .  S
C1168      C1169   1.407       .  A
C1168      H1173   1.083       .  S
C1169      C1170   1.409       .  A
C1170      F1171   1.357       .  S
C1175      C1176   1.403       .  A
C1175      C1180   1.399       .  A
C1175      H1182   1.083       .  S
C1176      C1177   1.403       .  A
C1177      C1178   1.395       .  A
C1177      F1184   1.358       .  S
C1178      C1179   1.405       .  A
C1178      H1183   1.083       .  S
C1179      C1180   1.407       .  A
C1180      F1181   1.357       .  S
C1185      C1186   1.401       .  A
C1185      C1190   1.397       .  A
C1185      H1192   1.084       .  S
C1186      C1187   1.405       .  A
C1187      C1188   1.398       .  A
C1187      F1194   1.358       .  S
C1188      C1189   1.407       .  A
C1188      H1193   1.083       .  S
C1189      C1190   1.412       .  A
C1190      F1191   1.357       .  S
C1195      C1196   1.406       .  A
C1195      C1200   1.399       .  A
C1195      H1202   1.083       .  S
C1196      C1197   1.411       .  A
C1197      C1198   1.396       .  A
C1197      F1204   1.357       .  S
C1198      C1199   1.401       .  A
C1198      H1203   1.084       .  S
C1199      C1200   1.406       .  A
C1200      F1201   1.358       .  S
C1205      C1206   1.405       .  A
C1205      C1210   1.396       .  A
C1205      H1212   1.083       .  S
C1206      C1207   1.410       .  A
C1207      C1208   1.400       .  A
C1207      F1214   1.357       .  S
C1208      C1209   1.402       .  A
C1208      H1213   1.083       .  S
C1209      C1210   1.405       .  A
C1210      F1211   1.358       .  S
C1215      C1216   1.401       .  A
C1215      C1220   1.395       .  A
C1215      H1222   1.084       .  S
C1216      C1217   1.405       .  A
C1217      C1218   1.400       .  A
C1217      F1224   1.357       .  S
C1218      C1219   1.407       .  A
C1218      H1223   1.083       .  S
C1219      C1220   1.410       .  A
C1220      F1221   1.358       .  S
C1225      C1226   1.404       .  A
C1225      C1230   1.400       .  A
C1225      H1232   1.083       .  S
C1226      C1227   1.405       .  A
C1227      C1228   1.397       .  A
C1227      F1234   1.358       .  S
C1228      C1229   1.408       .  A
C1228      H1233   1.083       .  S
C1229      C1230   1.411       .  A
C1230      F1231   1.357       .  S
C1235      C1236   1.408       .  A
C1235      C1240   1.397       .  A
C1235      H1242   1.083       .  S
C1236      C1237   1.411       .  A
C1237      C1238   1.400       .  A
C1237      F1244   1.357       .  S
C1238      C1239   1.403       .  A
C1238      H1243   1.083       .  S
C1239      C1240   1.405       .  A
C1240      F1241   1.358       .  S
C1245      C1246   1.402       .  A
C1245      C1250   1.395       .  A
C1245      H1252   1.084       .  S
C1246      C1247   1.404       .  A
C1247      C1248   1.400       .  A
C1247      F1254   1.357       .  S
C1248      C1249   1.407       .  A
C1248      H1253   1.083       .  S
C1249      C1250   1.409       .  A
C1250      F1251   1.358       .  S
C1255      C1256   1.403       .  A
C1255      C1260   1.400       .  A
C1255      H1262   1.083       .  S
C1256      C1257   1.405       .  A
C1257      C1258   1.395       .  A
C1257      F1264   1.358       .  S
C1258      C1259   1.405       .  A
C1258      H1263   1.083       .  S
C1259      C1260   1.410       .  A
C1260      F1261   1.357       .  S
C1265      C1266   1.406       .  A
C1265      C1270   1.401       .  A
C1265      H1272   1.083       .  S
C1266      C1267   1.408       .  A
C1267      C1268   1.396       .  A
C1267      F1274   1.358       .  S
C1268      C1269   1.401       .  A
C1268      H1273   1.084       .  S
C1269      C1270   1.404       .  A
C1270      F1271   1.357       .  S
C1275      C1276   1.408       .  A
C1275      C1280   1.398       .  A
C1275      H1282   1.082       .  S
C1276      C1277   1.411       .  A
C1277      C1278   1.399       .  A
C1277      F1284   1.357       .  S
C1278      C1279   1.402       .  A
C1278      H1283   1.083       .  S
C1279      C1280   1.405       .  A
C1280      F1281   1.358       .  S
C1285      C1286   1.407       .  A
C1285      C1290   1.397       .  A
C1285      H1292   1.083       .  S
C1286      C1287   1.409       .  A
C1287      C1288   1.399       .  A
C1287      F1294   1.357       .  S
C1288      C1289   1.403       .  A
C1288      H1293   1.083       .  S
C1289      C1290   1.404       .  A
C1290      F1291   1.358       .  S
C1295      C1296   1.401       .  A
C1295      C1300   1.396       .  A
C1295      H1302   1.084       .  S
C1296      C1297   1.407       .  A
C1297      C1298   1.399       .  A
C1297      F1304   1.358       .  S
C1298      C1299   1.407       .  A
C1298      H1303   1.083       .  S
C1299      C1300   1.412       .  A
C1300      F1301   1.357       .  S
C1305      C1306   1.408       .  A
C1305      C1310   1.400       .  A
C1305      H1312   1.083       .  S
C1306      C1307   1.412       .  A
C1307      C1308   1.397       .  A
C1307      F1314   1.357       .  S
C1308      C1309   1.402       .  A
C1308      H1313   1.084       .  S
C1309      C1310   1.406       .  A
C1310      F1311   1.358       .  S
C1315      C1316   1.408       .  A
C1315      C1320   1.396       .  A
C1315      H1322   1.083       .  S
C1316      C1317   1.410       .  A
C1317      C1318   1.400       .  A
C1317      F1324   1.357       .  S
C1318      C1319   1.404       .  A
C1318      H1323   1.083       .  S
C1319      C1320   1.404       .  A
C1320      F1321   1.358       .  S
C1325      C1326   1.402       .  A
C1325      C1330   1.398       .  A
C1325      H1332   1.083       .  S
C1326      C1327   1.405       .  A
C1327      C1328   1.399       .  A
C1327      F1334   1.358       .  S
C1328      C1329   1.407       .  A
C1328      H1333   1.083       .  S
C1329      C1330   1.410       .  A
C1330      F1331   1.357       .  S
C1335      C1336   1.406       .  A
C1335      C1340   1.395       .  A
C1335      H1342   1.083       .  S
C1336      C1337   1.410       .  A
C1337      C1338   1.401       .  A
C1337      F1344   1.357       .  S
C1338      C1339   1.404       .  A
C1338      H1343   1.083       .  S
C1339      C1340   1.404       .  A
C1340      F1341   1.358       .  S
C1345      C1346   1.402       .  A
C1345      C1350   1.395       .  A
C1345      H1352   1.083       .  S
C1346      C1347   1.406       .  A
C1347      C1348   1.400       .  A
C1347      F1354   1.357       .  S
C1348      C1349   1.407       .  A
C1348      H1353   1.083       .  S
C1349      C1350   1.411       .  A
C1350      F1351   1.357       .  S
C1355      C1356   1.408       .  A
C1355      C1360   1.400       .  A
C1355      H1362   1.082       .  S
C1356      C1357   1.412       .  A
C1357      C1358   1.394       .  A
C1357      F1364   1.357       .  S
C1358      C1359   1.401       .  A
C1358      H1363   1.083       .  S
C1359      C1360   1.405       .  A
C1360      F1361   1.357       .  S
C1365      C1366   1.404       .  A
C1365      C1370   1.400       .  A
C1365      H1372   1.083       .  S
C1366      C1367   1.404       .  A
C1367      C1368   1.397       .  A
C1367      F1374   1.358       .  S
C1368      C1369   1.409       .  A
C1368      H1373   1.082       .  S
C1369      C1370   1.411       .  A
C1370      F1371   1.357       .  S
C1375      C1376   1.409       .  A
C1375      C1380   1.400       .  A
C1375      H1382   1.083       .  S
C1376      C1377   1.410       .  A
C1377      C1378   1.397       .  A
C1377      F1384   1.357       .  S
C1378      C1379   1.403       .  A
C1378      H1383   1.084       .  S
C1379      C1380   1.405       .  A
C1380      F1381   1.357       .  S
C1385      C1386   1.407       .  A
C1385      C1390   1.397       .  A
C1385      H1392   1.083       .  S
C1386      C1387   1.410       .  A
C1387      C1388   1.398       .  A
C1387      F1394   1.357       .  S
C1388      C1389   1.403       .  A
C1388      H1393   1.083       .  S
C1389      C1390   1.405       .  A
C1390      F1391   1.358       .  S
C1395      C1396   1.407       .  A
C1395      C1400   1.395       .  A
C1395      H1402   1.083       .  S
C1396      C1397   1.410       .  A
C1397      C1398   1.400       .  A
C1397      F1404   1.357       .  S
C1398      C1399   1.403       .  A
C1398      H1403   1.083       .  S
C1399      C1400   1.405       .  A
C1400      F1401   1.358       .  S
C1405      C1406   1.404       .  A
C1405      C1410   1.401       .  A
C1405      H1412   1.083       .  S
C1406      C1407   1.406       .  A
C1407      C1408   1.397       .  A
C1407      F1414   1.358       .  S
C1408      C1409   1.401       .  A
C1408      H1413   1.083       .  S
C1409      C1410   1.404       .  A
C1410      F1411   1.357       .  S
C1415      C1416   1.402       .  A
C1415      C1420   1.396       .  A
C1415      H1422   1.084       .  S
C1416      C1417   1.404       .  A
C1417      C1418   1.401       .  A
C1417      F1424   1.357       .  S
C1418      C1419   1.403       .  A
C1418      H1423   1.084       .  S
C1419      C1420   1.403       .  A
C1420      F1421   1.358       .  S
C1425      C1426   1.402       .  A
C1425      C1430   1.399       .  A
C1425      H1432   1.083       .  S
C1426      C1427   1.405       .  A
C1427      C1428   1.396       .  A
C1427      F1434   1.358       .  S
C1428      C1429   1.407       .  A
C1428      H1433   1.083       .  S
C1429      C1430   1.411       .  A
C1430      F1431   1.357       .  S
C1435      C1436   1.407       .  A
C1435      C1440   1.397       .  A
C1435      H1442   1.083       .  S
C1436      C1437   1.411       .  A
C1437      C1438   1.399       .  A
C1437      F1444   1.357       .  S
C1438      C1439   1.403       .  A
C1438      H1443   1.083       .  S
C1439      C1440   1.406       .  A
C1440      F1441   1.358       .  S
C1445      C1446   1.404       .  A
C1445      C1450   1.400       .  A
C1445      H1452   1.083       .  S
C1446      C1447   1.406       .  A
C1447      C1448   1.395       .  A
C1447      F1454   1.358       .  S
C1448      C1449   1.406       .  A
C1448      H1453   1.083       .  S
C1449      C1450   1.410       .  A
C1450      F1451   1.357       .  S
C1455      C1456   1.404       .  A
C1455      C1460   1.401       .  A
C1455      H1462   1.083       .  S
C1456      C1457   1.406       .  A
C1457      C1458   1.395       .  A
C1457      F1464   1.358       .  S
C1458      C1459   1.407       .  A
C1458      H1463   1.083       .  S
C1459      C1460   1.411       .  A
C1460      F1461   1.357       .  S
C1465      C1466   1.406       .  A
C1465      C1470   1.396       .  A
C1465      H1472   1.083       .  S
C1466      C1467   1.411       .  A
C1467      C1468   1.400       .  A
C1467      F1474   1.357       .  S
C1468      C1469   1.402       .  A
C1468      H1473   1.083       .  S
C1469      C1470   1.405       .  A
C1470      F1471   1.358       .  S
C1475      C1476   1.409       .  A
C1475      C1480   1.401       .  A
C1475      H1482   1.082       .  S
C1476      C1477   1.412       .  A
C1477      C1478   1.396       .  A
C1477      F1484   1.357       .  S
C1478      C1479   1.402       .  A
C1478      H1483   1.083       .  S
C1479      C1480   1.406       .  A
C1480      F1481   1.357       .  S
C1485      C1486   1.407       .  A
C1485      C1490   1.395       .  A
C1485      H1492   1.083       .  S
C1486      C1487   1.410       .  A
C1487      C1488   1.400       .  A
C1487      F1494   1.357       .  S
C1488      C1489   1.404       .  A
C1488      H1493   1.083       .  S
C1489      C1490   1.406       .  A
C1490      F1491   1.358       .  S
C1495      C1496   1.407       .  A
C1495      C1500   1.399       .  A
C1495      H1502   1.083       .  S
C1496      C1497   1.411       .  A
C1497      C1498   1.396       .  A
C1497      F1504   1.357       .  S
C1498      C1499   1.401       .  A
C1498      H1503   1.084       .  S
C1499      C1500   1.405       .  A
C1500      F1501   1.358       .  S
C1505      C1506   1.401       .  A
C1505      C1510   1.396       .  A
C1505      H1512   1.084       .  S
C1506      C1507   1.405       .  A
C1507      C1508   1.400       .  A
C1507      F1514   1.358       .  S
C1508      C1509   1.407       .  A
C1508      H1513   1.083       .  S
C1509      C1510   1.410       .  A
C1510      F1511   1.357       .  S
C1515      C1516   1.403       .  A
C1515      C1520   1.401       .  A
C1515      H1522   1.083       .  S
C1516      C1517   1.405       .  A
C1517      C1518   1.396       .  A
C1517      F1524   1.358       .  S
C1518      C1519   1.401       .  A
C1518      H1523   1.084       .  S
C1519      C1520   1.405       .  A
C1520      F1521   1.357       .  S
C1525      C1526   1.403       .  A
C1525      C1530   1.402       .  A
C1525      H1532   1.084       .  S
C1526      C1527   1.402       .  A
C1527      C1528   1.397       .  A
C1527      F1534   1.358       .  S
C1528      C1529   1.402       .  A
C1528      H1533   1.084       .  S
C1529      C1530   1.404       .  A
C1530      F1531   1.357       .  S
C1535      C1536   1.409       .  A
C1535      C1540   1.400       .  A
C1535      H1542   1.083       .  S
C1536      C1537   1.412       .  A
C1537      C1538   1.397       .  A
C1537      F1544   1.357       .  S
C1538      C1539   1.402       .  A
C1538      H1543   1.084       .  S
C1539      C1540   1.405       .  A
C1540      F1541   1.357       .  S
C1545      C1546   1.407       .  A
C1545      C1550   1.399       .  A
C1545      H1552   1.083       .  S
C1546      C1547   1.409       .  A
C1547      C1548   1.397       .  A
C1547      F1554   1.357       .  S
C1548      C1549   1.402       .  A
C1548      H1553   1.084       .  S
C1549      C1550   1.405       .  A
C1550      F1551   1.357       .  S
C1555      C1556   1.403       .  A
C1555      C1560   1.401       .  A
C1555      H1562   1.083       .  S
C1556      C1557   1.404       .  A
C1557      C1558   1.395       .  A
C1557      F1564   1.358       .  S
C1558      C1559   1.406       .  A
C1558      H1563   1.083       .  S
C1559      C1560   1.409       .  A
C1560      F1561   1.357       .  S
C1565      C1566   1.407       .  A
C1565      C1570   1.398       .  A
C1565      H1572   1.083       .  S
C1566      C1567   1.410       .  A
C1567      C1568   1.396       .  A
C1567      F1574   1.357       .  S
C1568      C1569   1.402       .  A
C1568      H1573   1.084       .  S
C1569      C1570   1.405       .  A
C1570      F1571   1.358       .  S
C1575      C1576   1.408       .  A
C1575      C1580   1.400       .  A
C1575      H1582   1.083       .  S
C1576      C1577   1.410       .  A
C1577      C1578   1.395       .  A
C1577      F1584   1.357       .  S
C1578      C1579   1.402       .  A
C1578      H1583   1.083       .  S
C1579      C1580   1.405       .  A
C1580      F1581   1.357       .  S
