geometry optimzed in LAMMPS
_audit_creation_date              2020-12-01 
_audit_creation_method            'lammps2cif' 
_symmetry_space_group_name_H-M    'P1' 
_symmetry_Int_Tables_number       1 
_symmetry_cell_setting            triclinic 
loop_ 
_symmetry_equiv_pos_as_xyz 
  x,y,z 
_cell_length_a                    46.04114062 
_cell_length_b                    46.23500710499644 
_cell_length_c                    46.19041739774296 
_cell_angle_alpha                 90.01347781674164 
_cell_angle_beta                  89.9468613350235 
_cell_angle_gamma                 90.0320974679162 
loop_ 
_atom_site_label 
_atom_site_type_symbol 
_atom_site_fract_x 
_atom_site_fract_y 
_atom_site_fract_z 
_atom_site_charge 
N1          N  0.65845407  0.72255195  0.73643187    -0.27300
N2          N  0.66828332  0.74740679  0.72608137    -0.35200
C3          C  0.64820997  0.76809877  0.73078677     0.01000
C4          C  0.62449443  0.75552928  0.74421918     0.07000
C5          C  0.63165158  0.72667373  0.74737114    -0.06100
H6          H  0.65014153  0.79031301  0.72368035     0.07700
H7          H  0.61836101  0.70989368  0.75693223     0.08900
Cu8        Cu  0.70648632  0.75110395  0.70202452     0.44200
Cu9        Cu  0.68198859  0.68405681  0.73580513     0.42000
Cu10       Cu  0.74761985  0.68470718  0.69352474     0.43900
N11         N  0.73898025  0.74562640  0.67098715    -0.34700
N12         N  0.75251774  0.72075389  0.66662527    -0.29000
C13         C  0.76858949  0.72282950  0.64230211    -0.05100
C14         C  0.76551824  0.75047101  0.63118238     0.07100
C15         C  0.74670905  0.76437028  0.64998747     0.00900
H16         H  0.78129556  0.70538501  0.63317300     0.08600
H17         H  0.73788185  0.78591673  0.64756852     0.07700
N18         N  0.73704422  0.65143891  0.72231908    -0.36200
N19         N  0.71212678  0.65045871  0.73657596    -0.28400
C20         C  0.71135348  0.62620924  0.75275870    -0.03600
C21         C  0.73720305  0.61147681  0.74887262     0.05000
C22         C  0.75306924  0.62815999  0.72961939     0.03100
H23         H  0.69381409  0.62038231  0.76723277     0.08200
H24         H  0.77466986  0.62370594  0.72153264     0.07000
N25         N  0.63007311  0.28865413  0.74196258    -0.27300
N26         N  0.63242392  0.26551534  0.72532167    -0.35200
C27         C  0.61101512  0.24683316  0.73195124     0.01000
C28         C  0.59407714  0.25909483  0.75338599     0.07000
C29         C  0.60660603  0.28567942  0.75913064    -0.06100
H30         H  0.60800101  0.22591249  0.72189285     0.07700
H31         H  0.59998454  0.30106956  0.77550252     0.08900
Cu32       Cu  0.66524790  0.26044935  0.69499831     0.44200
Cu33       Cu  0.66183736  0.32051315  0.74340470     0.42000
Cu34       Cu  0.73102009  0.30075319  0.70908472     0.43900
N35         N  0.70179116  0.25817930  0.66881525    -0.34700
N36         N  0.72669382  0.27106784  0.67499355    -0.29000
C37         C  0.74631838  0.26402401  0.65444265    -0.05100
C38         C  0.73284264  0.24643702  0.63416929     0.07100
C39         C  0.70462559  0.24336010  0.64389153     0.00900
H40         H  0.76836226  0.27209700  0.65362680     0.08600
H41         H  0.68746459  0.23098834  0.63375602     0.07700
N42         N  0.72577922  0.33548772  0.73786804    -0.36200
N43         N  0.70022848  0.34365235  0.74822262    -0.28400
C44         C  0.70344338  0.36856491  0.76290606    -0.03600
C45         C  0.73241541  0.37629606  0.76234097     0.05000
C46         C  0.74603324  0.35482723  0.74637744     0.03100
H47         H  0.68589378  0.38028090  0.77317035     0.08200
H48         H  0.76865097  0.35419974  0.74004099     0.07000
N49         N  0.26848001  0.37015621  0.71385641    -0.27300
N50         N  0.28254432  0.36660239  0.73856303    -0.35200
C51         C  0.27606804  0.38852753  0.75658067     0.01000
C52         C  0.25744036  0.40717142  0.74246808     0.07000
C53         C  0.25316160  0.39501238  0.71534477    -0.06100
H54         H  0.28418131  0.39061750  0.77845984     0.07700
H55         H  0.23890181  0.40291935  0.69851530     0.08900
Cu56       Cu  0.30909888  0.33160301  0.74740774     0.44200
Cu57       Cu  0.26826693  0.33858728  0.68117019     0.42000
Cu58       Cu  0.29916907  0.26865462  0.70251698     0.43900
N59         N  0.33197374  0.29353608  0.75322750    -0.34700
N60         N  0.32721321  0.26975014  0.73804403    -0.29000
C61         C  0.34587035  0.24911626  0.74692230    -0.05100
C62         C  0.36341164  0.26074505  0.76830669     0.07100
C63         C  0.35413010  0.28895087  0.77159887    -0.01800
H64         H  0.34798055  0.22799717  0.73705503     0.08600
H65         H  0.36336546  0.30522534  0.78569584     0.07700
N66         N  0.27609105  0.27547743  0.66412949    -0.36200
N67         N  0.26665739  0.30112333  0.65547528    -0.28400
C68         C  0.25475283  0.29829563  0.62893198    -0.03600
C69         C  0.25623673  0.26949313  0.62073379     0.05000
C70         C  0.26977126  0.25566570  0.64363337     0.03100
H71         H  0.24497760  0.31578081  0.61681700     0.08200
H72         H  0.27517536  0.23293850  0.64503629     0.07000
N73         N  0.25676040  0.67650810  0.71523798    -0.27300
N74         N  0.27285587  0.68113076  0.73850984    -0.35200
C75         C  0.26703745  0.66034921  0.75819662     0.01000
C76         C  0.24672261  0.64160056  0.74646976     0.07000
C77         C  0.24090664  0.65236726  0.71918999    -0.06100
H78         H  0.27801637  0.65808073  0.77876958     0.07700
H79         H  0.22646655  0.64311283  0.70320686     0.08900
Cu80       Cu  0.30539794  0.71269141  0.74003352     0.44200
Cu81       Cu  0.25761074  0.70258832  0.67857402     0.42000
Cu82       Cu  0.32262594  0.74470374  0.66992838     0.43900
N83         N  0.34203047  0.73827962  0.73209060    -0.34700
N84         N  0.34934137  0.74779241  0.70604919    -0.29000
C85         C  0.37554565  0.76065887  0.70752980    -0.05100
C86         C  0.38492113  0.75972170  0.73592029     0.07100
C87         C  0.36313221  0.74555203  0.75094967     0.00900
H88         H  0.38670108  0.77042545  0.68936666     0.08600
H89         H  0.36312512  0.73998934  0.77369840     0.07700
N90         N  0.28907305  0.74455514  0.63987902    -0.36200
N91         N  0.26439924  0.73044869  0.64387900    -0.28400
C92         C  0.24615828  0.73670486  0.62197133    -0.03600
C93         C  0.26031341  0.75517070  0.60308607     0.05000
C94         C  0.28747278  0.75960724  0.61499236     0.03100
H95         H  0.22445895  0.72801362  0.61967251     0.08200
H96         H  0.30454111  0.77333406  0.60657603     0.07000
N97         N  0.37090941  0.71337966  0.26495777    -0.27300
N98         N  0.36683949  0.73806708  0.27884315    -0.35200
C99         C  0.38924784  0.75591269  0.27327557     0.01000
C100        C  0.40870140  0.74156577  0.25558406     0.07000
C101        C  0.39651392  0.71459649  0.25079325    -0.06100
H102        H  0.39133305  0.77765821  0.28168208     0.07700
H103        H  0.40496646  0.69766408  0.23698951     0.08900
Cu104      Cu  0.33127016  0.74597154  0.30534284     0.44200
Cu105      Cu  0.33901356  0.68135143  0.26291754     0.42000
Cu106      Cu  0.26785767  0.70254223  0.29230415     0.43900
N107        N  0.29435870  0.74789060  0.33117053    -0.34700
N108        N  0.27029314  0.73331602  0.32551030    -0.29000
C109        C  0.25051825  0.73923006  0.34627225    -0.05100
C110        C  0.26301549  0.75793651  0.36614693     0.07100
C111        C  0.29084732  0.76278677  0.35598167     0.00900
H112        H  0.22921888  0.72943441  0.34766706     0.08600
H113        H  0.30742883  0.77600353  0.36600670     0.07700
N114        N  0.27459845  0.66702644  0.26492522    -0.36200
N115        N  0.30061216  0.65817771  0.25643311    -0.28400
C116        C  0.29774322  0.63307146  0.24191272    -0.03600
C117        C  0.26856363  0.62599754  0.24066018     0.05000
C118        C  0.25450038  0.64804622  0.25536510     0.03100
H119        H  0.31560345  0.62096570  0.23269090     0.08200
H120        H  0.23149020  0.64950326  0.25989916     0.07000
N121        N  0.73434875  0.64245569  0.27828767    -0.27300
N122        N  0.74819784  0.63825186  0.30302444    -0.35200
C123        C  0.76391585  0.61369722  0.30097479     0.01000
C124        C  0.76026370  0.60234952  0.27343900     0.07000
C125        C  0.74149087  0.62119006  0.25965477    -0.06100
H126        H  0.77795775  0.60541345  0.31780687     0.07700
H127        H  0.73349044  0.61949051  0.23770359     0.08900
Cu128      Cu  0.74799876  0.66863730  0.33666046     0.44200
Cu129      Cu  0.70626134  0.67704305  0.27097616     0.42000
Cu130      Cu  0.71551659  0.73865441  0.31723355     0.43900
N131        N  0.75087337  0.70597897  0.36219083    -0.34700
N132        N  0.74095713  0.73158539  0.35397275    -0.29000
C133        C  0.74843870  0.75145549  0.37393553    -0.05100
C134        C  0.76332349  0.73775898  0.39602063     0.07100
C135        C  0.76436504  0.70891362  0.38795730     0.00900
H136        H  0.74287879  0.77415819  0.37276194     0.08600
H137        H  0.77485387  0.69149252  0.39956392     0.07700
N138        N  0.68460867  0.73724366  0.28420315    -0.36200
N139        N  0.68010402  0.71374901  0.26849291    -0.28400
C140        C  0.65620085  0.71764395  0.25217043    -0.03600
C141        C  0.64549261  0.74512751  0.25732166     0.05000
C142        C  0.66407540  0.75701621  0.27768991     0.03100
H143        H  0.64701876  0.70148606  0.23791253     0.08200
H144        H  0.66176690  0.77775338  0.28830006     0.07000
N145        N  0.74656459  0.33207753  0.29012638    -0.27300
N146        N  0.73103195  0.32888690  0.26622402    -0.35200
C147        C  0.73763962  0.35052642  0.24778831     0.01000
C148        C  0.75778311  0.36841077  0.26099200     0.07000
C149        C  0.76281059  0.35618568  0.28781342    -0.06100
H150        H  0.72744910  0.35381759  0.22695160     0.07700
H151        H  0.77714840  0.36428388  0.30450017     0.08900
Cu152      Cu  0.69842573  0.29777948  0.26154547     0.44200
Cu153      Cu  0.74483987  0.30403680  0.32535763     0.42000
Cu154      Cu  0.68021465  0.26154280  0.32909458     0.43900
N155        N  0.66243005  0.27072908  0.26678901    -0.34700
N156        N  0.65493810  0.25941745  0.29203614    -0.29000
C157        C  0.62933822  0.24569426  0.28923169    -0.05100
C158        C  0.62051092  0.24796127  0.26078115     0.07100
C159        C  0.64198652  0.26385234  0.24706149     0.00900
H160        H  0.61809288  0.23468433  0.30661023     0.08600
H161        H  0.64211106  0.27093868  0.22474069     0.07700
N162        N  0.71192965  0.26049825  0.36089615    -0.36200
N163        N  0.73670414  0.27478546  0.35865643    -0.28400
C164        C  0.75381706  0.26772266  0.38120394    -0.03600
C165        C  0.73877097  0.24855623  0.39869049     0.05000
C166        C  0.71227499  0.24452017  0.38525645     0.03100
H167        H  0.77535557  0.27632497  0.38490152     0.08200
H168        H  0.69486204  0.23041963  0.39222837     0.07000
N169        N  0.77217819  0.55396778  0.79008098    -0.27300
N170        N  0.75021072  0.53948405  0.77868558    -0.35200
C171        C  0.73397861  0.55779788  0.76273990     0.01000
C172        C  0.74669919  0.58493428  0.76380110     0.07000
C173        C  0.77089763  0.58168584  0.78120852    -0.06100
H174        H  0.71499715  0.55159914  0.75041430     0.07700
H175        H  0.78643291  0.59825892  0.78701697     0.08900
Cu176      Cu  0.74608985  0.49475450  0.78293548     0.44200
Cu177      Cu  0.80319133  0.53488937  0.81670453     0.42000
Cu178      Cu  0.80826619  0.45664558  0.81517343     0.43900
N179        N  0.75101403  0.44992549  0.78340865    -0.34700
N180        N  0.77425412  0.43612839  0.79313082    -0.29000
C181        C  0.77142910  0.40768958  0.78708707    -0.05100
C182        C  0.74497840  0.40345687  0.77344807     0.07100
C183        C  0.73260772  0.43061293  0.77166324     0.00900
H184        H  0.78726865  0.39129483  0.79252344     0.08600
H185        H  0.71215174  0.43610190  0.76155222     0.07700
N186        N  0.83631212  0.48311744  0.83913524    -0.36200
N187        N  0.83365069  0.51152704  0.84039271    -0.28400
C188        C  0.85366148  0.52219604  0.85874974    -0.03600
C189        C  0.87036653  0.49952324  0.86955870     0.05000
C190        C  0.85839725  0.47505495  0.85646470     0.03100
H191        H  0.85510850  0.54486383  0.86410192     0.08200
H192        H  0.86502884  0.45282637  0.85938738     0.07000
N193        N  0.21569232  0.58138538  0.78727563    -0.27300
N194        N  0.22506641  0.56781037  0.76382301    -0.35200
C195        C  0.23727241  0.58721463  0.74581263     0.01000
C196        C  0.23604048  0.61416204  0.75871103     0.07000
C197        C  0.22231810  0.60972509  0.78501558    -0.06100
H198        H  0.24703776  0.58196183  0.72515805     0.07700
H199        H  0.21707827  0.62594580  0.80107451     0.08900
Cu200      Cu  0.22390505  0.52306865  0.75833224     0.44200
Cu201      Cu  0.19360237  0.56054909  0.82080259     0.42000
Cu202      Cu  0.20277064  0.48247323  0.82113519     0.43900
N203        N  0.22927031  0.47843987  0.76157723    -0.34700
N204        N  0.22360539  0.46398098  0.78563100    -0.29000
C205        C  0.23252365  0.43643746  0.78238687    -0.05100
C206        C  0.24378260  0.43326751  0.75476776     0.07100
C207        C  0.24129956  0.46028281  0.74212150     0.00900
H208        H  0.23078625  0.41988446  0.79885337     0.08600
H209        H  0.24892961  0.46659863  0.72088413     0.07700
N210        N  0.17630113  0.50477654  0.85010156    -0.36200
N211        N  0.17237532  0.53304185  0.84972935    -0.28400
C212        C  0.15186493  0.53992193  0.86934913    -0.03600
C213        C  0.14207704  0.51477031  0.88296738     0.05000
C214        C  0.15852954  0.49298926  0.86995795     0.03100
H215        H  0.14407505  0.56172066  0.87258545     0.08200
H216        H  0.15754583  0.46999588  0.87348937     0.07000
N217        N  0.78966065  0.42894927  0.22157432    -0.27300
N218        N  0.78361646  0.44154612  0.24659999    -0.35200
C219        C  0.77176408  0.42181848  0.26451652     0.01000
C220        C  0.76972879  0.39579259  0.24988228     0.07000
C221        C  0.78111874  0.40109020  0.22268615    -0.06100
H222        H  0.76432731  0.42631567  0.28628153     0.07700
H223        H  0.78359936  0.38569368  0.20521639     0.08900
Cu224      Cu  0.78865402  0.48574900  0.25426645     0.44200
Cu225      Cu  0.81099699  0.44978821  0.18776897     0.42000
Cu226      Cu  0.81578192  0.52775137  0.19413884     0.43900
N227        N  0.78683711  0.53081964  0.25289394    -0.34700
N228        N  0.79489240  0.54602071  0.22997858    -0.29000
C229        C  0.78710447  0.57384253  0.23398621    -0.05100
C230        C  0.77409102  0.57637205  0.26092324     0.07100
C231        C  0.77440041  0.54870551  0.27235672     0.00900
H232        H  0.79042962  0.59094102  0.21834186     0.08600
H233        H  0.76476124  0.54179469  0.29257606     0.07700
N234        N  0.83737100  0.50382328  0.16228506    -0.36200
N235        N  0.83572279  0.47535299  0.16006006    -0.28400
C236        C  0.85320351  0.46647671  0.13839992    -0.03600
C237        C  0.86632264  0.49051259  0.12607003     0.05000
C238        C  0.85582148  0.51377931  0.14195916     0.03100
H239        H  0.85628987  0.44411430  0.13222491     0.08200
H240        H  0.86187169  0.53626224  0.13959666     0.07000
N241        N  0.22246415  0.45070172  0.21641133    -0.27300
N242        N  0.24714498  0.46427918  0.22189889    -0.35200
C243        C  0.26557278  0.44571561  0.23490183     0.01000
C244        C  0.25159298  0.41939003  0.23825592     0.07000
C245        C  0.22426565  0.42338267  0.22642589    -0.06100
H246        H  0.28705013  0.45133479  0.24255108     0.07700
H247        H  0.20703675  0.40752470  0.22500850     0.08900
Cu248      Cu  0.25248178  0.50860620  0.21506000     0.44200
Cu249      Cu  0.18806444  0.47017371  0.19450981     0.42000
Cu250      Cu  0.18962245  0.54846027  0.18785022     0.43900
N251        N  0.24871584  0.55358533  0.21619475    -0.34700
N252        N  0.22510006  0.56797823  0.20847214    -0.29000
C253        C  0.22847683  0.59605224  0.21578786    -0.05100
C254        C  0.25567786  0.59950697  0.22817638     0.07100
C255        C  0.26790483  0.57219442  0.22790163     0.00900
H256        H  0.21236458  0.61271494  0.21230914     0.08600
H257        H  0.28868660  0.56602633  0.23689674     0.07700
N258        N  0.16020038  0.52198303  0.16559064    -0.36200
N259        N  0.15973920  0.49350221  0.16819425    -0.28400
C260        C  0.13971037  0.48257781  0.14998788    -0.03600
C261        C  0.12691378  0.50515407  0.13483048     0.05000
C262        C  0.14038097  0.52984790  0.14560615     0.03100
H263        H  0.13498228  0.45976132  0.14798699     0.08200
H264        H  0.13668914  0.55190715  0.13873336     0.07000
O265        O  0.03152410  0.47819973  0.03244265    -0.73000
O266        O  0.97309670  0.47722436  0.96723512    -0.74000
O267        O  0.03499289  0.48206158  0.97118478    -0.62600
O268        O  0.96982951  0.47333860  0.02879031    -0.71000
O269        O  0.96527185  0.52100176  0.03041329    -0.70600
O270        O  0.03154123  0.52968181  0.97393372    -0.61800
O271        O  0.96959471  0.52488872  0.96899337    -0.74300
O272        O  0.02693580  0.52575855  0.03530673    -0.73100
Cu273      Cu  0.00247103  0.47608212  0.99975288     1.04600
Cu274      Cu  0.99819547  0.52697483  0.00222578     1.04300
C275        C  0.03846762  0.50224024  0.04429243     0.93200
C276        C  0.96182369  0.50072551  0.95789664     0.92300
C277        C  0.04404659  0.50716625  0.96378792     0.84500
C278        C  0.95721937  0.49586569  0.03877385     0.90800
N279        N  0.56379971  0.79746168  0.77251039    -0.27300
N280        N  0.54975444  0.77867759  0.75604238    -0.35200
C281        C  0.56921368  0.76096530  0.74338152     0.01000
C282        C  0.59676362  0.76942147  0.75181519     0.07000
C283        C  0.59257075  0.79267139  0.77016545    -0.06100
H284        H  0.56371731  0.74322527  0.72912083     0.07700
H285        H  0.60910962  0.80440742  0.78194708     0.08900
Cu286      Cu  0.50462789  0.77780011  0.75201436     0.44200
Cu287      Cu  0.54300669  0.82619555  0.80030140     0.42000
Cu288      Cu  0.46470284  0.81995683  0.80540195     0.43900
N289        N  0.45938951  0.77941420  0.75421156    -0.34700
N290        N  0.44499715  0.79331500  0.77476439    -0.29000
C291        C  0.41637392  0.78819922  0.77156633    -0.05100
C292        C  0.41253712  0.77081888  0.74751955     0.07100
C293        C  0.44019485  0.76578912  0.73691850     0.00900
H294        H  0.39956184  0.79694857  0.78540064     0.08600
H295        H  0.44599273  0.75251709  0.71850573     0.07700
N296        N  0.48944937  0.84643288  0.83235167    -0.36200
N297        N  0.51801888  0.84862340  0.83039941    -0.28400
C298        C  0.52764973  0.86645490  0.85132556    -0.03600
C299        C  0.50406332  0.87600529  0.86738801     0.05000
C300        C  0.48016052  0.86305135  0.85446595     0.03100
H301        H  0.55022488  0.87210079  0.85447280     0.08200
H302        H  0.45769959  0.86504532  0.86107077     0.07000
N303        N  0.42167991  0.21683998  0.79857039    -0.27300
N304        N  0.43572128  0.24109610  0.79267483    -0.35200
C305        C  0.41684011  0.26061619  0.78217987     0.01000
C306        C  0.38972894  0.24788411  0.78086281     0.07000
C307        C  0.39353088  0.22007085  0.79125421    -0.06100
H308        H  0.42274875  0.28190493  0.77442694     0.07700
H309        H  0.37714074  0.20340638  0.79320171     0.08900
Cu310      Cu  0.48058723  0.24483328  0.79389554     0.44200
Cu311      Cu  0.44211965  0.18092265  0.81647511     0.42000
Cu312      Cu  0.52019695  0.17848596  0.80728040     0.43900
N313        N  0.52449560  0.23978941  0.78524486    -0.34700
N314        N  0.53839856  0.21488163  0.78778407    -0.29000
C315        C  0.56537984  0.21791586  0.77690921    -0.05100
C316        C  0.56865556  0.24618572  0.76763858     0.07100
C317        C  0.54242526  0.25947542  0.77334925     0.00900
H318        H  0.58148797  0.20090654  0.77607060     0.08600
H319        H  0.53636850  0.28144973  0.76804242     0.07700
N320        N  0.49714610  0.14954934  0.83318692    -0.36200
N321        N  0.46872429  0.15084099  0.83696333    -0.28400
C322        C  0.46095551  0.13179840  0.85761523    -0.03600
C323        C  0.48561293  0.11738097  0.86720675     0.05000
C324        C  0.50812671  0.12945556  0.85119302     0.03100
H325        H  0.43923074  0.13033853  0.86626003     0.08200
H326        H  0.53104941  0.12479490  0.85332138     0.07000
N327        N  0.58571094  0.78644433  0.22561066    -0.27300
N328        N  0.57201564  0.76250946  0.23349419    -0.35200
C329        C  0.59122927  0.74426848  0.24570217     0.01000
C330        C  0.61817316  0.75748854  0.24610649     0.07000
C331        C  0.61389441  0.78426932  0.23335237    -0.06100
H332        H  0.58583691  0.72316631  0.25428941     0.07700
H333        H  0.63022556  0.80059128  0.22922147     0.08900
Cu334      Cu  0.52723670  0.75648421  0.22993652     0.44200
Cu335      Cu  0.56561740  0.81981214  0.20238834     0.42000
Cu336      Cu  0.48719375  0.81760920  0.20221940     0.43900
N337        N  0.48208673  0.75974118  0.23195828    -0.34700
N338        N  0.46782790  0.78320723  0.22383672    -0.29000
C339        C  0.43960805  0.78019807  0.23083482    -0.05100
C340        C  0.43579625  0.75332949  0.24339916     0.07100
C341        C  0.46311473  0.74085773  0.24370612     0.00900
H342        H  0.42303654  0.79628967  0.22684073     0.08600
H343        H  0.46897540  0.72017123  0.25294630     0.07700
N344        N  0.51123345  0.84535357  0.17611130    -0.36200
N345        N  0.53992779  0.84620952  0.17589326    -0.28400
C346        C  0.54865968  0.86492370  0.15523243    -0.03600
C347        C  0.52426345  0.87619682  0.14150295     0.05000
C348        C  0.50100220  0.86340956  0.15568601     0.03100
H349        H  0.57113799  0.87001139  0.15094779     0.08200
H350        H  0.47820055  0.86637556  0.15088322     0.07000
N351        N  0.56054175  0.21685401  0.21984524    -0.27300
N352        N  0.54636928  0.22803821  0.24211322    -0.35200
C353        C  0.56561857  0.24034103  0.26024705     0.01000
C354        C  0.59306713  0.23737202  0.24845390     0.07000
C355        C  0.58910049  0.22248002  0.22280500    -0.06100
H356        H  0.55996141  0.25140156  0.28010944     0.07700
H357        H  0.60577815  0.21558302  0.20780401     0.08900
Cu358      Cu  0.50125307  0.22841202  0.24542403     0.44200
Cu359      Cu  0.54043136  0.19216583  0.18807750     0.42000
Cu360      Cu  0.46152545  0.18494802  0.19398405     0.43900
N361        N  0.45615268  0.22945821  0.24177283    -0.34700
N362        N  0.44135109  0.21310138  0.22346170    -0.29000
C363        C  0.41277706  0.21894610  0.22652912    -0.05100
C364        C  0.40958320  0.24023332  0.24743858     0.07100
C365        C  0.43751156  0.24644767  0.25651371     0.00900
H366        H  0.39565689  0.20898156  0.21397180     0.08600
H367        H  0.44383682  0.26218787  0.27265988     0.07700
N368        N  0.48757770  0.15993527  0.16629308    -0.36200
N369        N  0.51605551  0.16296464  0.16399833    -0.28400
C370        C  0.52627025  0.14353584  0.14481860    -0.03600
C371        C  0.50325164  0.12719122  0.13440769     0.05000
C372        C  0.47901003  0.13847543  0.14847249     0.03100
H373        H  0.54897225  0.14120670  0.13923833     0.08200
H374        H  0.45662079  0.13203372  0.14566356     0.07000
O375        O  0.53413482  0.96830209  0.03412947    -0.73000
O376        O  0.52560845  0.02861129  0.97135825    -0.74000
O377        O  0.53052998  0.02995515  0.03315870    -0.62600
O378        O  0.52920342  0.96720631  0.97220413    -0.71000
O379        O  0.48124131  0.96496181  0.97584642    -0.70600
O380        O  0.48264786  0.02708783  0.03694413    -0.61800
O381        O  0.47773945  0.02586568  0.97501168    -0.74300
O382        O  0.48622790  0.96597368  0.03788949    -0.73100
Cu383      Cu  0.53154560  0.99858736  0.00260057     1.04600
Cu384      Cu  0.48034635  0.99584112  0.00658840     1.04300
C385        C  0.51141861  0.95804213  0.04637039     0.93200
C386        C  0.50036765  0.03649585  0.96294567     0.92300
C387        C  0.50676485  0.03832439  0.04483913     0.84500
C388        C  0.50487195  0.95679405  0.96381937     0.90800
N389        N  0.34841852  0.28687937  0.26658712    -0.27300
N390        N  0.34084427  0.26273668  0.28005015    -0.35200
C391        C  0.36104419  0.24227700  0.27472555     0.01000
C392        C  0.38245465  0.25414837  0.25733649     0.07000
C393        C  0.37386098  0.28247998  0.25276772    -0.06100
H394        H  0.36067496  0.22064929  0.28365362     0.07700
H395        H  0.38521585  0.29867746  0.24019827     0.08900
Cu396      Cu  0.30488443  0.25970333  0.30760447     0.44200
Cu397      Cu  0.32305237  0.32448372  0.26670785     0.42000
Cu398      Cu  0.25917255  0.32320709  0.31279271     0.43900
N399        N  0.27356289  0.26547020  0.33990138    -0.34700
N400        N  0.25823800  0.28949599  0.34294034    -0.29000
C401        C  0.24338010  0.28819836  0.36810796    -0.05100
C402        C  0.24917923  0.26187927  0.38119239     0.07100
C403        C  0.26821481  0.24797333  0.36263050     0.00900
H404        H  0.22950926  0.30520266  0.37633982     0.08600
H405        H  0.27862004  0.22730088  0.36616926     0.07700
N406        N  0.26646449  0.35463795  0.28108696    -0.36200
N407        N  0.29067788  0.35626210  0.26568898    -0.28400
C408        C  0.28934171  0.37979400  0.24847131    -0.03600
C409        C  0.26279082  0.39320359  0.25275993     0.05000
C410        C  0.24880085  0.37659150  0.27344450     0.03100
H411        H  0.30605598  0.38614294  0.23326624     0.08200
H412        H  0.22754564  0.38048958  0.28265585     0.07000
N413        N  0.79313723  0.78411624  0.45259516    -0.27300
N414        N  0.78833362  0.76028359  0.46771611    -0.35200
C415        C  0.77784682  0.73972850  0.44979382     0.01000
C416        C  0.77551977  0.75140310  0.42225233     0.07000
C417        C  0.78533690  0.77955993  0.42489376    -0.06100
H418        H  0.77112419  0.71834800  0.45656616     0.07700
H419        H  0.78666525  0.79561744  0.40790845     0.08900
Cu420      Cu  0.79260127  0.75859969  0.51276894     0.44200
Cu421      Cu  0.81053447  0.82175293  0.47014860     0.42000
Cu422      Cu  0.81342207  0.82606766  0.54808643     0.43900
N423        N  0.78957739  0.76575435  0.55738536    -0.34700
N424        N  0.79493530  0.79099137  0.56984860    -0.29000
C425        C  0.78731877  0.78944654  0.59800596    -0.05100
C426        C  0.77732417  0.76176635  0.60367415     0.07100
C427        C  0.77917634  0.74732260  0.57748540     0.00900
H428        H  0.78912840  0.80710203  0.61327699     0.08600
H429        H  0.77219045  0.72541744  0.57306890     0.07700
N430        N  0.83474227  0.85514633  0.52077375    -0.36200
N431        N  0.83306520  0.85384907  0.49226570    -0.28400
C432        C  0.85066769  0.87402980  0.48072860    -0.03600
C433        C  0.86477581  0.88863631  0.50299280     0.05000
C434        C  0.85372337  0.87607097  0.52809250     0.03100
H435        H  0.85320722  0.87711705  0.45770358     0.08200
H436        H  0.86009341  0.88074378  0.55013334     0.07000
N437        N  0.22155802  0.78980304  0.54379280    -0.27300
N438        N  0.24416069  0.77902704  0.52973923    -0.35200
C439        C  0.26160760  0.76547444  0.54878228     0.01000
C440        C  0.24907848  0.76734048  0.57592464     0.07000
C441        C  0.22368302  0.78277155  0.57200954    -0.06100
H442        H  0.28146627  0.75430617  0.54314041     0.07700
H443        H  0.20812003  0.78881657  0.58849670     0.08900
Cu444      Cu  0.24871226  0.78062804  0.48487473     0.44200
Cu445      Cu  0.18934896  0.81445429  0.52410103     0.42000
Cu446      Cu  0.18791842  0.81254006  0.44594062     0.43900
N447        N  0.24432709  0.77914546  0.43997400    -0.34700
N448        N  0.22135021  0.78908842  0.42592568    -0.29000
C449        C  0.22422361  0.78268258  0.39756322    -0.05100
C450        C  0.25043080  0.76854490  0.39356227     0.07100
C451        C  0.26265609  0.76681397  0.42085544     0.00900
H452        H  0.20871213  0.78848950  0.38097928     0.08600
H453        H  0.28308319  0.75673262  0.42650286     0.07700
N454        N  0.15991494  0.83826896  0.47088182    -0.36200
N455        N  0.16090713  0.83926664  0.49943646    -0.28400
C456        C  0.14152952  0.85889495  0.50895052    -0.03600
C457        C  0.12740313  0.87119822  0.48535678     0.05000
C458        C  0.13964643  0.85712299  0.46155012     0.03100
H459        H  0.13844194  0.86431154  0.53152700     0.08200
H460        H  0.13436294  0.85983266  0.43900674     0.07000
N461        N  0.77689202  0.21492868  0.45885683    -0.27300
N462        N  0.75226158  0.22207920  0.47176877    -0.35200
C463        C  0.73445096  0.23423772  0.45208151     0.01000
C464        C  0.74888755  0.23527365  0.42579308     0.07000
C465        C  0.77572497  0.22297532  0.43089091    -0.06100
H466        H  0.71321817  0.24304546  0.45687630     0.07700
H467        H  0.79314230  0.22007578  0.41542179     0.08900
Cu468      Cu  0.74635725  0.21891754  0.51647263     0.44200
Cu469      Cu  0.81085135  0.19403202  0.47964464     0.42000
Cu470      Cu  0.80861591  0.18954613  0.55694979     0.43900
N471        N  0.75105066  0.22156425  0.56137739    -0.34700
N472        N  0.77434901  0.21277311  0.57571067    -0.29000
C473        C  0.77165415  0.22063244  0.60371143    -0.05100
C474        C  0.74524389  0.23446920  0.60725195     0.07100
C475        C  0.73269384  0.23451856  0.58005006     0.00900
H476        H  0.78752089  0.21613838  0.62037143     0.08600
H477        H  0.71211469  0.24409763  0.57408431     0.07700
N478        N  0.83914846  0.16707192  0.53188999    -0.36200
N479        N  0.83994004  0.16932265  0.50339833    -0.28400
C480        C  0.86101848  0.15210473  0.49296984    -0.03600
C481        C  0.87449226  0.13809999  0.51589136     0.05000
C482        C  0.85981571  0.14816100  0.54032120     0.03100
H483        H  0.86597507  0.14980458  0.47019259     0.08200
H484        H  0.86317777  0.14160305  0.56252737     0.07000
N485        N  0.22367214  0.22662449  0.56252254    -0.27300
N486        N  0.23419070  0.24864457  0.54744267    -0.35200
C487        C  0.24717141  0.26730081  0.56582177     0.01000
C488        C  0.24526703  0.25627930  0.59365737     0.07000
C489        C  0.23038599  0.23039649  0.59070470    -0.06100
H490        H  0.25770541  0.28719582  0.55933798     0.07700
H491        H  0.22417837  0.21576667  0.60791367     0.08900
Cu492      Cu  0.23199082  0.25159267  0.50210166     0.44200
Cu493      Cu  0.19885037  0.19325773  0.54436948     0.42000
Cu494      Cu  0.19960334  0.19024550  0.46605809     0.43900
N495        N  0.23122285  0.24668637  0.45688060    -0.34700
N496        N  0.22090368  0.22324126  0.44405757    -0.29000
C497        C  0.22553739  0.22519213  0.41532672    -0.05100
C498        C  0.23886443  0.25136857  0.40959461     0.07100
C499        C  0.24211279  0.26450386  0.43640330     0.00900
H500        H  0.21940983  0.20884533  0.39971580     0.08600
H501        H  0.25257106  0.28500027  0.44077848     0.07700
N502        N  0.17467132  0.16284574  0.49165286    -0.36200
N503        N  0.17386553  0.16407144  0.52022884    -0.28400
C504        C  0.15403949  0.14487165  0.52989357    -0.03600
C505        C  0.14198097  0.13055727  0.50625326     0.05000
C506        C  0.15557071  0.14284322  0.48243954     0.03100
H507        H  0.14799152  0.14275511  0.55237404     0.08200
H508        H  0.15148926  0.13793864  0.45990367     0.07000
O509        O  0.03241649  0.97704107  0.47325424    -0.73000
O510        O  0.97410350  0.04207429  0.47977916    -0.74000
O511        O  0.03621290  0.03885976  0.47661530    -0.62600
O512        O  0.97037337  0.98090081  0.47663599    -0.71000
O513        O  0.97210223  0.97935565  0.52451794    -0.70600
O514        O  0.03918657  0.03500316  0.52432209    -0.61800
O515        O  0.97727100  0.04032238  0.52755686    -0.74300
O516        O  0.03382282  0.97350043  0.52101505    -0.73100
Cu517      Cu  0.00328669  0.00981706  0.47489521     1.04600
Cu518      Cu  0.00576368  0.00696579  0.52596131     1.04300
C519        C  0.04207586  0.96463858  0.49607199     0.93200
C520        C  0.96598515  0.05113915  0.50467398     0.92300
C521        C  0.04809860  0.04611753  0.50058240     0.84500
C522        C  0.96034361  0.97153016  0.50072901     0.90800
C523        C  0.09736742  0.11038047  0.48313624    -0.26400
C524        C  0.11803530  0.10874688  0.50551732    -0.14400
C525        C  0.11592893  0.08565714  0.52558596     0.36200
C526        C  0.09319799  0.06560243  0.52328794    -0.25800
C527        C  0.07227875  0.06754177  0.50124623    -0.15100
C528        C  0.07450073  0.09021389  0.48083801     0.37300
N529        N  0.05327227  0.09310075  0.45821240    -0.89300
H530        H  0.09873978  0.12784906  0.46756796     0.18400
H531        H  0.09205982  0.04809407  0.53884930     0.18400
N532        N  0.13709165  0.08110046  0.54780937    -0.88300
H533        H  0.05825175  0.11067179  0.44482437     0.35700
H534        H  0.03336215  0.09784227  0.46799894     0.40800
H535        H  0.13577610  0.09791763  0.56281993     0.40500
H536        H  0.15773915  0.08083504  0.53842663     0.35400
C537        C  0.90070623  0.09953778  0.48827390    -0.26400
C538        C  0.89826246  0.11606591  0.51373423    -0.14400
C539        C  0.91866794  0.11137136  0.53616761     0.36200
C540        C  0.94050174  0.09017656  0.53271581    -0.25800
C541        C  0.94293840  0.07379889  0.50715313    -0.15100
C542        C  0.92258462  0.07863500  0.48480983     0.37300
N543        N  0.92339048  0.06180153  0.45877891    -0.89300
H544        H  0.88516482  0.10237884  0.47092703     0.18400
H545        H  0.95598594  0.08671860  0.55001270     0.18400
N546        N  0.91765906  0.12842821  0.56215243    -0.88300
H547        H  0.92555775  0.07595788  0.44127108     0.35700
H548        H  0.90350230  0.05104676  0.45671022     0.40800
H549        H  0.92220052  0.14985121  0.55641181     0.40500
H550        H  0.93393273  0.12206898  0.57654412     0.35400
C551        C  0.08719589  0.89665172  0.51162352    -0.26400
C552        C  0.10462693  0.89452217  0.48659941    -0.14400
C553        C  0.10078085  0.91572059  0.46464912     0.36200
C554        C  0.08028382  0.93790197  0.46828215    -0.25800
C555        C  0.06313546  0.94010316  0.49335491    -0.15100
C556        C  0.06656458  0.91895736  0.51522274     0.37300
N557        N  0.04895267  0.91993422  0.54092550    -0.89300
H558        H  0.08945435  0.88061973  0.52855298     0.18400
H559        H  0.07812553  0.95395419  0.45132635     0.18400
N560        N  0.11788534  0.91627571  0.43878651    -0.88300
H561        H  0.05450136  0.90315930  0.55507571     0.35700
H562        H  0.02745135  0.91626379  0.53469189     0.40800
H563        H  0.11211992  0.89866538  0.42583079     0.40500
H564        H  0.13985324  0.91536778  0.44424873     0.35400
C565        C  0.89392724  0.92854586  0.52536424    -0.26400
C566        C  0.88834656  0.91095130  0.50113498    -0.14400
C567        C  0.90620542  0.91437221  0.47636053     0.36200
C568        C  0.92897912  0.93465350  0.47649969    -0.25800
C569        C  0.93504999  0.95143511  0.50106956    -0.15100
C570        C  0.91694749  0.94852363  0.52559547     0.37300
N571        N  0.92151059  0.96607837  0.55074680    -0.89300
H572        H  0.88036299  0.92690359  0.54445015     0.18400
H573        H  0.94258311  0.93657036  0.45743566     0.18400
N574        N  0.90225990  0.89667218  0.45126397    -0.88300
H575        H  0.92495493  0.95236356  0.56840085     0.35700
H576        H  0.90253530  0.97788136  0.55464936     0.40800
H577        H  0.92153879  0.88535858  0.44747292     0.40500
H578        H  0.89850960  0.91024973  0.43354593     0.35400
C579        C  0.52690362  0.10378174  0.09141191    -0.26400
C580        C  0.50456738  0.10360979  0.11225567    -0.14400
C581        C  0.48394854  0.08100500  0.11141203     0.36200
C582        C  0.48503191  0.06026578  0.08918575    -0.25800
C583        C  0.50689613  0.06083305  0.06795474    -0.15100
C584        C  0.52834154  0.08270252  0.06935846     0.37300
N585        N  0.55114121  0.08388464  0.04809663    -0.89300
H586        H  0.54298087  0.12087206  0.09181143     0.18400
H587        H  0.46887201  0.04321138  0.08890765     0.18400
N588        N  0.46237125  0.07832296  0.13358461    -0.88300
H589        H  0.56534847  0.10099141  0.05245440     0.35700
H590        H  0.54154476  0.08836588  0.02809313     0.40800
H591        H  0.46494581  0.05815621  0.14351309     0.40500
H592        H  0.44194289  0.07872107  0.12374510     0.35400
C593        C  0.50018485  0.91829242  0.11801271    -0.26400
C594        C  0.52232997  0.89739471  0.11716381    -0.14400
C595        C  0.54058555  0.89637074  0.09241181     0.36200
C596        C  0.53662451  0.91630715  0.06980216    -0.25800
C597        C  0.51441234  0.93711101  0.07070540    -0.15100
C598        C  0.49601218  0.93795550  0.09529594     0.37300
N599        N  0.47341898  0.95904331  0.09832383    -0.89300
H600        H  0.48593239  0.91948021  0.13666209     0.18400
H601        H  0.55076836  0.91516659  0.05106432     0.18400
N602        N  0.56243109  0.87464108  0.08881704    -0.88300
H603        H  0.45803356  0.95577773  0.08203613     0.35700
H604        H  0.48247983  0.97966309  0.09606290     0.40800
H605        H  0.55294246  0.85429643  0.09171596     0.40500
H606        H  0.57861132  0.87778016  0.10428089     0.35400
C607        C  0.51325514  0.09850329  0.90958978    -0.26400
C608        C  0.48850618  0.09664968  0.89184881    -0.14400
C609        C  0.46795816  0.07452343  0.89760864     0.36200
C610        C  0.47235127  0.05552785  0.92085704    -0.25800
C611        C  0.49705107  0.05744615  0.93862171    -0.15100
C612        C  0.51791370  0.07912019  0.93266313     0.37300
N613        N  0.54340062  0.08197851  0.95039909    -0.89300
H614        H  0.52915204  0.11529165  0.90550160     0.18400
H615        H  0.45641496  0.03870121  0.92474574     0.18400
N616        N  0.44305973  0.06979810  0.87966230    -0.88300
H617        H  0.55509863  0.10052233  0.94471093     0.35700
H618        H  0.55699397  0.06450735  0.94567504     0.40800
H619        H  0.44977053  0.06834654  0.85807313     0.40500
H620        H  0.42871776  0.08705220  0.88211403     0.35400
C621        C  0.48148438  0.91587277  0.89605719    -0.26400
C622        C  0.50421251  0.89589989  0.89275435    -0.14400
C623        C  0.52679629  0.89545185  0.91349238     0.36200
C624        C  0.52662807  0.91557530  0.93640070    -0.25800
C625        C  0.50402064  0.93568782  0.93954980    -0.15100
C626        C  0.48125903  0.93592258  0.91901193     0.37300
N627        N  0.45846285  0.95708985  0.92098387    -0.89300
H628        H  0.46421316  0.91641439  0.88015324     0.18400
H629        H  0.54401135  0.91524301  0.95219607     0.18400
N630        N  0.54946785  0.87416785  0.91166549    -0.88300
H631        H  0.44336645  0.95424485  0.90432112     0.35700
H632        H  0.46784997  0.97744740  0.91780193     0.40800
H633        H  0.53989649  0.85386035  0.91461159     0.40500
H634        H  0.56439170  0.87682433  0.92850405     0.35400
C635        C  0.08445361  0.52659765  0.10883050    -0.26400
C636        C  0.10415505  0.50359370  0.11177718    -0.14400
C637        C  0.10186447  0.47983071  0.09252678     0.36200
C638        C  0.07986850  0.47958586  0.07126622    -0.25800
C639        C  0.06039328  0.50280699  0.06814804    -0.15100
C640        C  0.06272898  0.52639772  0.08744640     0.37300
N641        N  0.04276590  0.55008443  0.08585036    -0.89300
H642        H  0.08562643  0.54485022  0.12349184     0.18400
H643        H  0.07850105  0.46144716  0.05647689     0.18400
N644        N  0.12235809  0.45643298  0.09388823    -0.88300
H645        H  0.05470141  0.56903575  0.08256376     0.35700
H646        H  0.03214737  0.55179120  0.10580449     0.40800
H647        H  0.14274718  0.46477571  0.08841482     0.40500
H648        H  0.11750381  0.44062394  0.07843481     0.35400
C649        C  0.91208031  0.51504146  0.06171268    -0.26400
C650        C  0.93315525  0.49313184  0.06015708    -0.14400
C651        C  0.93112272  0.46948880  0.07940656     0.36200
C652        C  0.90882299  0.46867536  0.10024489    -0.25800
C653        C  0.88829931  0.49107472  0.10237220    -0.15100
C654        C  0.88947257  0.51404872  0.08223098     0.37300
N655        N  0.86742322  0.53604274  0.08230172    -0.89300
H656        H  0.91305510  0.53294273  0.04660882     0.18400
H657        H  0.90813018  0.45080329  0.11539709     0.18400
N658        N  0.95221277  0.44673696  0.07862285    -0.88300
H659        H  0.84771953  0.52607893  0.07704784     0.35700
H660        H  0.87142966  0.55137541  0.06614873     0.40800
H661        H  0.94126161  0.42721460  0.07515898     0.40500
H662        H  0.96223367  0.44567286  0.09888898     0.35400
C663        C  0.10406742  0.53762836  0.91489472    -0.26400
C664        C  0.11772429  0.51226922  0.90471261    -0.14400
C665        C  0.10712696  0.48537977  0.91512897     0.36200
C666        C  0.08330963  0.48449423  0.93413462    -0.25800
C667        C  0.06936104  0.50976452  0.94363701    -0.15100
C668        C  0.08025938  0.53666257  0.93401236     0.37300
N669        N  0.06728365  0.56321590  0.94338583    -0.89300
H670        H  0.11161079  0.55867071  0.90803079     0.18400
H671        H  0.07572613  0.46354801  0.94146761     0.18400
N672        N  0.12011731  0.45859776  0.90669369    -0.88300
H673        H  0.06032710  0.57452232  0.92505909     0.35700
H674        H  0.08326879  0.57558775  0.95364759     0.40800
H675        H  0.10421271  0.44583948  0.89678417     0.40500
H676        H  0.12713449  0.44791728  0.92536986     0.35400
C677        C  0.90324007  0.47463814  0.90507826    -0.26400
C678        C  0.89463566  0.50044781  0.89139116    -0.14400
C679        C  0.90936740  0.52626707  0.89912679     0.36200
C680        C  0.93109970  0.52581887  0.92060559    -0.25800
C681        C  0.93930255  0.50002343  0.93448731    -0.15100
C682        C  0.92523535  0.47414146  0.92618359     0.37300
N683        N  0.93267515  0.44716612  0.93947713    -0.89300
H684        H  0.89257013  0.45445373  0.89990052     0.18400
H685        H  0.94177372  0.54593564  0.92625039     0.18400
N686        N  0.90297652  0.55305823  0.88501820    -0.88300
H687        H  0.93932360  0.43289658  0.92320698     0.35700
H688        H  0.91398825  0.43867340  0.94914653     0.40800
H689        H  0.92205149  0.56072122  0.87540375     0.40500
H690        H  0.89653695  0.56797534  0.90078789     0.35400
loop_ 
_geom_bond_atom_site_label_1 
_geom_bond_atom_site_label_2 
_geom_bond_distance 
_geom_bond_site_symmetry_2 
_ccdc_geom_bond_type 
N1            N2   1.324       .  A
N1            C5   1.347       .  A
N1           Cu9   2.084       .  S
N2            C3   1.348       .  A
N2           Cu8   2.087       .  S
C3            C4   1.383       .  A
C3            H6   1.082       .  S
C4            C5   1.382       .  A
C4          C282   1.472       .  S
C5            H7   1.082       .  S
Cu8          N11   2.087       .  S
Cu9          N19   2.084       .  S
Cu10         N12   2.091       .  S
Cu10         N18   2.091       .  S
N11          N12   1.324       .  A
N11          C15   1.348       .  A
N12          C13   1.348       .  A
C13          C14   1.385       .  A
C13          H16   1.082       .  S
C14          C15   1.384       .  A
C14         C426   1.477       .  S
C15          H17   1.082       .  S
N18          N19   1.323       .  A
N18          C22   1.348       .  A
N19          C20   1.348       .  A
C20          C21   1.383       .  A
C20          H23   1.082       .  S
C21          C22   1.385       .  A
C21         C172   1.475       .  S
C22          H24   1.082       .  S
N25          N26   1.322       .  A
N25          C29   1.347       .  A
N25         Cu33   2.076       .  S
N26          C27   1.345       .  A
N26         Cu32   2.073       .  S
C27          C28   1.382       .  A
C27          H30   1.082       .  S
C28          C29   1.383       .  A
C28         C316   1.469       .  S
C29          H31   1.082       .  S
Cu32         N35   2.074       .  S
Cu33         N43   2.078       .  S
Cu34         N36   2.098       .  S
Cu34         N42   2.099       .  S
N35          N36   1.323       .  A
N35          C39   1.346       .  A
N36          C37   1.350       .  A
C37          C38   1.387       .  A
C37          H40   1.082       .  S
C38          C39   1.381       .  A
C38         C474   1.475       .  S
C39          H41   1.082       .  S
N42          N43   1.325       .  A
N42          C46   1.350       .  A
N43          C44   1.345       .  A
C44          C45   1.381       .  A
C44          H47   1.082       .  S
C45          C46   1.386       .  A
C45         C182   1.475       .  S
C46          H48   1.082       .  S
N49          N50   1.323       .  A
N49          C53   1.350       .  A
N49         Cu57   2.100       .  S
N50          C51   1.345       .  A
N50         Cu56   2.070       .  S
C51          C52   1.380       .  A
C51          H54   1.082       .  S
C52          C53   1.387       .  A
C52         C206   1.474       .  S
C53          H55   1.082       .  S
Cu56         N59   2.069       .  S
Cu57         N67   2.101       .  S
Cu58         N60   2.090       .  S
Cu58         N66   2.092       .  S
N59          N60   1.322       .  A
N59          C63   1.344       .  A
N60          C61   1.348       .  A
C61          C62   1.385       .  A
C61          H64   1.082       .  S
C62          C63   1.381       .  A
C62         C306   1.470       .  S
C63          H65   1.082       .  S
N66          N67   1.325       .  A
N66          C70   1.349       .  A
N67          C68   1.350       .  A
C68          C69   1.386       .  A
C68          H71   1.082       .  S
C69          C70   1.385       .  A
C69         C488   1.481       .  S
C70          H72   1.082       .  S
N73          N74   1.323       .  A
N73          C77   1.346       .  A
N73         Cu81   2.080       .  S
N74          C75   1.350       .  A
N74         Cu80   2.092       .  S
C75          C76   1.385       .  A
C75          H78   1.082       .  S
C76          C77   1.381       .  A
C76         C196   1.473       .  S
C77          H79   1.082       .  S
Cu80         N83   2.092       .  S
Cu81         N91   2.080       .  S
Cu82         N84   2.079       .  S
Cu82         N90   2.078       .  S
N83          N84   1.324       .  A
N83          C87   1.348       .  A
N84          C85   1.347       .  A
C85          C86   1.382       .  A
C85          H88   1.082       .  S
C86          C87   1.384       .  A
C86         C292   1.472       .  S
C87          H89   1.082       .  S
N90          N91   1.322       .  A
N90          C94   1.346       .  A
N91          C92   1.347       .  A
C92          C93   1.383       .  A
C92          H95   1.082       .  S
C93          C94   1.382       .  A
C93         C440   1.470       .  S
C94          H96   1.082       .  S
N97          N98   1.322       .  A
N97         C101   1.349       .  A
N97        Cu105   2.087       .  S
N98          C99   1.345       .  A
N98        Cu104   2.076       .  S
C99         C100   1.382       .  A
C99         H102   1.082       .  S
C100        C101   1.385       .  A
C100        C340   1.472       .  S
C101        H103   1.082       .  S
Cu104       N107   2.077       .  S
Cu105       N115   2.089       .  S
Cu106       N108   2.095       .  S
Cu106       N114   2.095       .  S
N107        N108   1.323       .  A
N107        C111   1.347       .  A
N108        C109   1.350       .  A
C109        C110   1.386       .  A
C109        H112   1.082       .  S
C110        C111   1.383       .  A
C110        C450   1.476       .  S
C111        H113   1.082       .  S
N114        N115   1.325       .  A
N114        C118   1.349       .  A
N115        C116   1.347       .  A
C116        C117   1.384       .  A
C116        H119   1.082       .  S
C117        C118   1.385       .  A
C117        C254   1.478       .  S
C118        H120   1.082       .  S
N121        N122   1.323       .  A
N121        C125   1.347       .  A
N121       Cu129   2.085       .  S
N122        C123   1.350       .  A
N122       Cu128   2.094       .  S
C123        C124   1.386       .  A
C123        H126   1.082       .  S
C124        C125   1.383       .  A
C124        C230   1.477       .  S
C125        H127   1.082       .  S
Cu128       N131   2.095       .  S
Cu129       N139   2.085       .  S
Cu130       N132   2.089       .  S
Cu130       N138   2.088       .  S
N131        N132   1.325       .  A
N131        C135   1.350       .  A
N132        C133   1.346       .  A
C133        C134   1.383       .  A
C133        H136   1.082       .  S
C134        C135   1.385       .  A
C134        C416   1.477       .  S
C135        H137   1.082       .  S
N138        N139   1.323       .  A
N138        C142   1.350       .  A
N139        C140   1.347       .  A
C140        C141   1.384       .  A
C140        H143   1.082       .  S
C141        C142   1.386       .  A
C141        C330   1.476       .  S
C142        H144   1.082       .  S
N145        N146   1.324       .  A
N145        C149   1.346       .  A
N145       Cu153   2.082       .  S
N146        C147   1.348       .  A
N146       Cu152   2.090       .  S
C147        C148   1.384       .  A
C147        H150   1.082       .  S
C148        C149   1.382       .  A
C148        C220   1.472       .  S
C149        H151   1.082       .  S
Cu152       N155   2.090       .  S
Cu153       N163   2.082       .  S
Cu154       N156   2.073       .  S
Cu154       N162   2.073       .  S
N155        N156   1.324       .  A
N155        C159   1.349       .  A
N156        C157   1.345       .  A
C157        C158   1.380       .  A
C157        H160   1.082       .  S
C158        C159   1.385       .  A
C158        C354   1.470       .  S
C159        H161   1.082       .  S
N162        N163   1.322       .  A
N162        C166   1.346       .  A
N163        C164   1.347       .  A
C164        C165   1.384       .  A
C164        H167   1.082       .  S
C165        C166   1.382       .  A
C165        C464   1.471       .  S
C166        H168   1.082       .  S
N169        N170   1.322       .  A
N169        C173   1.347       .  A
N169       Cu177   2.082       .  S
N170        C171   1.349       .  A
N170       Cu176   2.086       .  S
C171        C172   1.385       .  A
C171        H174   1.082       .  S
C172        C173   1.383       .  A
C173        H175   1.082       .  S
Cu176       N179   2.085       .  S
Cu177       N187   2.082       .  S
Cu178       N180   2.095       .  S
Cu178       N186   2.095       .  S
N179        N180   1.325       .  A
N179        C183   1.345       .  A
N180        C181   1.350       .  A
C181        C182   1.385       .  A
C181        H184   1.082       .  S
C182        C183   1.382       .  A
C183        H185   1.082       .  S
N186        N187   1.321       .  A
N186        C190   1.347       .  A
N187        C188   1.346       .  A
C188        C189   1.393       .  A
C188        H191   1.079       .  S
C189        C190   1.396       .  A
C189        C678   1.506       .  S
C190        H192   1.081       .  S
N193        N194   1.324       .  A
N193        C197   1.349       .  A
N193       Cu201   2.087       .  S
N194        C195   1.346       .  A
N194       Cu200   2.085       .  S
C195        C196   1.382       .  A
C195        H198   1.082       .  S
C196        C197   1.384       .  A
C197        H199   1.082       .  S
Cu200       N203   2.084       .  S
Cu201       N211   2.087       .  S
Cu202       N204   2.083       .  S
Cu202       N210   2.082       .  S
N203        N204   1.322       .  A
N203        C207   1.348       .  A
N204        C205   1.347       .  A
C205        C206   1.384       .  A
C205        H208   1.082       .  S
C206        C207   1.384       .  A
C207        H209   1.082       .  S
N210        N211   1.320       .  A
N210        C214   1.344       .  A
N211        C212   1.346       .  A
C212        C213   1.397       .  A
C212        H215   1.080       .  S
C213        C214   1.396       .  A
C213        C664   1.509       .  S
C214        H216   1.076       .  S
N217        N218   1.324       .  A
N217        C221   1.348       .  A
N217       Cu225   2.080       .  S
N218        C219   1.347       .  A
N218       Cu224   2.087       .  S
C219        C220   1.383       .  A
C219        H222   1.082       .  S
C220        C221   1.383       .  A
C221        H223   1.082       .  S
Cu224       N227   2.087       .  S
Cu225       N235   2.080       .  S
Cu226       N228   2.092       .  S
Cu226       N234   2.092       .  S
N227        N228   1.323       .  A
N227        C231   1.349       .  A
N228        C229   1.348       .  A
C229        C230   1.385       .  A
C229        H232   1.082       .  S
C230        C231   1.384       .  A
C231        H233   1.082       .  S
N234        N235   1.322       .  A
N234        C238   1.347       .  A
N235        C236   1.348       .  A
C236        C237   1.387       .  A
C236        H239   1.082       .  S
C237        C238   1.389       .  A
C237        C653   1.490       .  S
C238        H240   1.082       .  S
N241        N242   1.323       .  A
N241        C245   1.348       .  A
N241       Cu249   2.085       .  S
N242        C243   1.349       .  A
N242       Cu248   2.088       .  S
C243        C244   1.385       .  A
C243        H246   1.082       .  S
C244        C245   1.385       .  A
C244        C409   1.477       .  S
C245        H247   1.082       .  S
Cu248       N251   2.088       .  S
Cu249       N259   2.085       .  S
Cu250       N252   2.095       .  S
Cu250       N258   2.095       .  S
N251        N252   1.324       .  A
N251        C255   1.346       .  A
N252        C253   1.350       .  A
C253        C254   1.387       .  A
C253        H256   1.082       .  S
C254        C255   1.383       .  A
C255        H257   1.082       .  S
N258        N259   1.322       .  A
N258        C262   1.349       .  A
N259        C260   1.347       .  A
C260        C261   1.389       .  A
C260        H263   1.081       .  S
C261        C262   1.391       .  A
C261        C636   1.496       .  S
C262        H264   1.082       .  S
O265       Cu273   2.020   1_554  S
O265        C275   1.279       .  A
O266       Cu273   2.023   1_655  S
O266        C276   1.280       .  A
O267       Cu273   2.014       .  S
O267        C277   1.280       .  A
O268       Cu273   2.017   1_654  S
O268        C278   1.278       .  A
O269       Cu274   2.016       .  S
O269        C278   1.279       .  A
O270       Cu274   2.019   1_456  S
O270        C277   1.279       .  A
O271       Cu274   2.026   1_556  S
O271        C276   1.280       .  A
O272       Cu274   2.023   1_455  S
O272        C275   1.280       .  A
Cu273      Cu274   2.364   1_456  S
C275        C639   1.495       .  S
C276        C681   1.499       .  S
C277        C667   1.496       .  S
C278        C650   1.489       .  S
N279        N280   1.323       .  A
N279        C283   1.347       .  A
N279       Cu287   2.080       .  S
N280        C281   1.347       .  A
N280       Cu286   2.087       .  S
C281        C282   1.383       .  A
C281        H284   1.082       .  S
C282        C283   1.382       .  A
C283        H285   1.082       .  S
Cu286       N289   2.087       .  S
Cu287       N297   2.081       .  S
Cu288       N290   2.084       .  S
Cu288       N296   2.085       .  S
N289        N290   1.324       .  A
N289        C293   1.348       .  A
N290        C291   1.347       .  A
C291        C292   1.382       .  A
C291        H294   1.082       .  S
C292        C293   1.384       .  A
C293        H295   1.082       .  S
N296        N297   1.322       .  A
N296        C300   1.348       .  A
N297        C298   1.346       .  A
C298        C299   1.387       .  A
C298        H301   1.081       .  S
C299        C300   1.388       .  A
C299        C622   1.489       .  S
C300        H302   1.082       .  S
N303        N304   1.322       .  A
N303        C307   1.348       .  A
N303       Cu311   2.081       .  S
N304        C305   1.344       .  A
N304       Cu310   2.074       .  S
C305        C306   1.381       .  A
C305        H308   1.082       .  S
C306        C307   1.384       .  A
C307        H309   1.082       .  S
Cu310       N313   2.074       .  S
Cu311       N321   2.082       .  S
Cu312       N314   2.084       .  S
Cu312       N320   2.084       .  S
N313        N314   1.323       .  A
N313        C317   1.345       .  A
N314        C315   1.347       .  A
C315        C316   1.384       .  A
C315        H318   1.082       .  S
C316        C317   1.380       .  A
C317        H319   1.082       .  S
N320        N321   1.321       .  A
N320        C324   1.346       .  A
N321        C322   1.346       .  A
C322        C323   1.390       .  A
C322        H325   1.079       .  S
C323        C324   1.390       .  A
C323        C608   1.494       .  S
C324        H326   1.082       .  S
N327        N328   1.324       .  A
N327        C331   1.350       .  A
N327       Cu335   2.095       .  S
N328        C329   1.347       .  A
N328       Cu334   2.087       .  S
C329        C330   1.383       .  A
C329        H332   1.082       .  S
C330        C331   1.386       .  A
C331        H333   1.082       .  S
Cu334       N337   2.086       .  S
Cu335       N345   2.096       .  S
Cu336       N338   2.078       .  S
Cu336       N344   2.079       .  S
N337        N338   1.323       .  A
N337        C341   1.348       .  A
N338        C339   1.346       .  A
C339        C340   1.382       .  A
C339        H342   1.082       .  S
C340        C341   1.384       .  A
C341        H343   1.082       .  S
N344        N345   1.322       .  A
N344        C348   1.346       .  A
N345        C346   1.349       .  A
C346        C347   1.392       .  A
C346        H349   1.079       .  S
C347        C348   1.387       .  A
C347        C594   1.494       .  S
C348        H350   1.082       .  S
N351        N352   1.323       .  A
N351        C355   1.347       .  A
N351       Cu359   2.077       .  S
N352        C353   1.346       .  A
N352       Cu358   2.083       .  S
C353        C354   1.383       .  A
C353        H356   1.082       .  S
C354        C355   1.382       .  A
C355        H357   1.082       .  S
Cu358       N361   2.084       .  S
Cu359       N369   2.078       .  S
Cu360       N362   2.100       .  S
Cu360       N368   2.100       .  S
N361        N362   1.324       .  A
N361        C365   1.348       .  A
N362        C363   1.351       .  A
C363        C364   1.387       .  A
C363        H366   1.082       .  S
C364        C365   1.383       .  A
C364        C392   1.477       .  S
C365        H367   1.082       .  S
N368        N369   1.323       .  A
N368        C372   1.348       .  A
N369        C370   1.346       .  A
C370        C371   1.388       .  A
C370        H373   1.082       .  S
C371        C372   1.393       .  A
C371        C580   1.496       .  S
C372        H374   1.081       .  S
O375       Cu383   2.024       .  S
O375        C385   1.279       .  A
O376       Cu383   2.021   1_546  S
O376        C386   1.279       .  A
O377       Cu383   2.024   1_545  S
O377        C387   1.280       .  A
O378       Cu383   2.022   1_556  S
O378        C388   1.279       .  A
O379       Cu384   2.014   1_556  S
O379        C388   1.278       .  A
O380       Cu384   2.016   1_545  S
O380        C387   1.279       .  A
O381       Cu384   2.017   1_546  S
O381        C386   1.279       .  A
O382       Cu384   2.018       .  S
O382        C385   1.278       .  A
Cu383      Cu384   2.368       .  S
C385        C597   1.490       .  S
C386        C611   1.492       .  S
C387        C583   1.491       .  S
C388        C625   1.487       .  S
N389        N390   1.324       .  A
N389        C393   1.349       .  A
N389       Cu397   2.095       .  S
N390        C391   1.349       .  A
N390       Cu396   2.092       .  S
C391        C392   1.384       .  A
C391        H394   1.082       .  S
C392        C393   1.385       .  A
C393        H395   1.082       .  S
Cu396       N399   2.091       .  S
Cu397       N407   2.094       .  S
Cu398       N400   2.091       .  S
Cu398       N406   2.090       .  S
N399        N400   1.324       .  A
N399        C403   1.348       .  A
N400        C401   1.350       .  A
C401        C402   1.385       .  A
C401        H404   1.082       .  S
C402        C403   1.384       .  A
C402        C498   1.477       .  S
C403        H405   1.082       .  S
N406        N407   1.324       .  A
N406        C410   1.348       .  A
N407        C408   1.349       .  A
C408        C409   1.385       .  A
C408        H411   1.082       .  S
C409        C410   1.384       .  A
C410        H412   1.082       .  S
N413        N414   1.323       .  A
N413        C417   1.346       .  A
N413       Cu421   2.080       .  S
N414        C415   1.350       .  A
N414       Cu420   2.092       .  S
C415        C416   1.386       .  A
C415        H418   1.082       .  S
C416        C417   1.383       .  A
C417        H419   1.082       .  S
Cu420       N423   2.092       .  S
Cu421       N431   2.079       .  S
Cu422       N424   2.089       .  S
Cu422       N430   2.088       .  S
N423        N424   1.324       .  A
N423        C427   1.348       .  A
N424        C425   1.349       .  A
C425        C426   1.385       .  A
C425        H428   1.082       .  S
C426        C427   1.384       .  A
C427        H429   1.082       .  S
N430        N431   1.320       .  A
N430        C434   1.347       .  A
N431        C432   1.345       .  A
C432        C433   1.391       .  A
C432        H435   1.079       .  S
C433        C434   1.393       .  A
C433        C566   1.499       .  S
C434        H436   1.081       .  S
N437        N438   1.324       .  A
N437        C441   1.347       .  A
N437       Cu445   2.081       .  S
N438        C439   1.347       .  A
N438       Cu444   2.084       .  S
C439        C440   1.382       .  A
C439        H442   1.082       .  S
C440        C441   1.382       .  A
C441        H443   1.082       .  S
Cu444       N447   2.085       .  S
Cu445       N455   2.082       .  S
Cu446       N448   2.097       .  S
Cu446       N454   2.098       .  S
N447        N448   1.324       .  A
N447        C451   1.348       .  A
N448        C449   1.349       .  A
C449        C450   1.385       .  A
C449        H452   1.082       .  S
C450        C451   1.383       .  A
C451        H453   1.082       .  S
N454        N455   1.321       .  A
N454        C458   1.348       .  A
N455        C456   1.346       .  A
C456        C457   1.392       .  A
C456        H459   1.082       .  S
C457        C458   1.396       .  A
C457        C552   1.506       .  S
C458        H460   1.077       .  S
N461        N462   1.323       .  A
N461        C465   1.345       .  A
N461       Cu469   2.075       .  S
N462        C463   1.348       .  A
N462       Cu468   2.088       .  S
C463        C464   1.385       .  A
C463        H466   1.082       .  S
C464        C465   1.381       .  A
C465        H467   1.082       .  S
Cu468       N471   2.089       .  S
Cu469       N479   2.075       .  S
Cu470       N472   2.096       .  S
Cu470       N478   2.096       .  S
N471        N472   1.325       .  A
N471        C475   1.348       .  A
N472        C473   1.349       .  A
C473        C474   1.384       .  A
C473        H476   1.082       .  S
C474        C475   1.383       .  A
C475        H477   1.082       .  S
N478        N479   1.321       .  A
N478        C482   1.350       .  A
N479        C480   1.344       .  A
C480        C481   1.388       .  A
C480        H483   1.082       .  S
C481        C482   1.395       .  A
C481        C538   1.499       .  S
C482        H484   1.081       .  S
N485        N486   1.325       .  A
N485        C489   1.349       .  A
N485       Cu493   2.095       .  S
N486        C487   1.350       .  A
N486       Cu492   2.101       .  S
C487        C488   1.386       .  A
C487        H490   1.082       .  S
C488        C489   1.385       .  A
C489        H491   1.082       .  S
Cu492       N495   2.101       .  S
Cu493       N503   2.095       .  S
Cu494       N496   2.078       .  S
Cu494       N502   2.078       .  S
N495        N496   1.323       .  A
N495        C499   1.350       .  A
N496        C497   1.347       .  A
C497        C498   1.382       .  A
C497        H500   1.082       .  S
C498        C499   1.387       .  A
C499        H501   1.082       .  S
N502        N503   1.322       .  A
N502        C506   1.345       .  A
N503        C504   1.349       .  A
C504        C505   1.392       .  A
C504        H507   1.079       .  S
C505        C506   1.387       .  A
C505        C524   1.494       .  S
C506        H508   1.082       .  S
O509       Cu517   2.026   1_565  S
O509        C519   1.280       .  A
O510       Cu517   2.020   1_655  S
O510        C520   1.279       .  A
O511       Cu517   2.026       .  S
O511        C521   1.280       .  A
O512       Cu517   2.022   1_665  S
O512        C522   1.280       .  A
O513       Cu518   2.008   1_665  S
O513        C522   1.278       .  A
O514       Cu518   2.013       .  S
O514        C521   1.278       .  A
O515       Cu518   2.027   1_655  S
O515        C520   1.280       .  A
O516       Cu518   2.029   1_565  S
O516        C519   1.280       .  A
Cu517      Cu518   2.365       .  S
C519        C555   1.498       .  S
C520        C541   1.496       .  S
C521        C527   1.490       .  S
C522        C569   1.489       .  S
C523        C524   1.408       .  A
C523        C528   1.410       .  A
C523        H530   1.083       .  S
C524        C525   1.417       .  A
C525        C526   1.402       .  A
C525        N532   1.432       .  S
C526        C527   1.405       .  A
C526        H531   1.084       .  S
C527        C528   1.414       .  A
C528        N529   1.438       .  S
N529        H533   1.046       .  S
N529        H534   1.045       .  S
N532        H535   1.043       .  S
N532        H536   1.044       .  S
C537        C538   1.407       .  A
C537        C542   1.405       .  A
C537        H544   1.083       .  S
C538        C539   1.416       .  A
C539        C540   1.413       .  A
C539        N546   1.437       .  S
C540        C541   1.407       .  A
C540        H545   1.083       .  S
C541        C542   1.413       .  A
C542        N543   1.433       .  S
N543        H547   1.045       .  S
N543        H548   1.046       .  S
N546        H549   1.046       .  S
N546        H550   1.045       .  S
C551        C552   1.410       .  A
C551        C556   1.412       .  A
C551        H558   1.083       .  S
C552        C553   1.422       .  A
C553        C554   1.404       .  A
C553        N560   1.430       .  S
C554        C555   1.405       .  A
C554        H559   1.084       .  S
C555        C556   1.415       .  A
C556        N557   1.438       .  S
N557        H561   1.046       .  S
N557        H562   1.045       .  S
N560        H563   1.045       .  S
N560        H564   1.044       .  S
C565        C566   1.407       .  A
C565        C570   1.406       .  A
C565        H572   1.083       .  S
C566        C567   1.417       .  A
C567        C568   1.406       .  A
C567        N574   1.430       .  S
C568        C569   1.403       .  A
C568        H573   1.084       .  S
C569        C570   1.412       .  A
C570        N571   1.433       .  S
N571        H575   1.045       .  S
N571        H576   1.046       .  S
N574        H577   1.045       .  S
N574        H578   1.046       .  S
C579        C580   1.408       .  A
C579        C584   1.411       .  A
C579        H586   1.083       .  S
C580        C581   1.412       .  A
C581        C582   1.405       .  A
C581        N588   1.432       .  S
C582        C583   1.405       .  A
C582        H587   1.084       .  S
C583        C584   1.414       .  A
C584        N585   1.438       .  S
N585        H589   1.046       .  S
N585        H590   1.045       .  S
N588        H591   1.046       .  S
N588        H592   1.045       .  S
C593        C594   1.406       .  A
C593        C598   1.402       .  A
C593        H600   1.084       .  S
C594        C595   1.419       .  A
C595        C596   1.405       .  A
C595        N602   1.432       .  S
C596        C597   1.405       .  A
C596        H601   1.084       .  S
C597        C598   1.417       .  A
C598        N599   1.433       .  S
N599        H603   1.045       .  S
N599        H604   1.046       .  S
N602        H605   1.045       .  S
N602        H606   1.043       .  S
C607        C608   1.407       .  A
C607        C612   1.409       .  A
C607        H614   1.083       .  S
C608        C609   1.418       .  A
C609        C610   1.402       .  A
C609        N616   1.432       .  S
C610        C611   1.406       .  A
C610        H615   1.084       .  S
C611        C612   1.415       .  A
C612        N613   1.438       .  S
N613        H617   1.046       .  S
N613        H618   1.045       .  S
N616        H619   1.046       .  S
N616        H620   1.042       .  S
C621        C622   1.404       .  A
C621        C626   1.408       .  A
C621        H628   1.083       .  S
C622        C623   1.415       .  A
C623        C624   1.409       .  A
C623        N630   1.437       .  S
C624        C625   1.404       .  A
C624        H629   1.084       .  S
C625        C626   1.414       .  A
C626        N627   1.438       .  S
N627        H631   1.046       .  S
N627        H632   1.046       .  S
N630        H633   1.046       .  S
N630        H634   1.045       .  S
C635        C636   1.405       .  A
C635        C640   1.406       .  A
C635        H642   1.083       .  S
C636        C637   1.417       .  A
C637        C638   1.411       .  A
C637        N644   1.437       .  S
C638        C639   1.407       .  A
C638        H643   1.083       .  S
C639        C640   1.413       .  A
C640        N641   1.432       .  S
N641        H645   1.045       .  S
N641        H646   1.046       .  S
N644        H647   1.046       .  S
N644        H648   1.046       .  S
C649        C650   1.405       .  A
C649        C654   1.408       .  A
C649        H656   1.083       .  S
C650        C651   1.412       .  A
C651        C652   1.407       .  A
C651        N658   1.432       .  S
C652        C653   1.406       .  A
C652        H657   1.083       .  S
C653        C654   1.413       .  A
C654        N655   1.437       .  S
N655        H659   1.046       .  S
N655        H660   1.046       .  S
N658        H661   1.046       .  S
N658        H662   1.045       .  S
C663        C664   1.411       .  A
C663        C668   1.408       .  A
C663        H670   1.080       .  S
C664        C665   1.419       .  A
C665        C666   1.405       .  A
C665        N672   1.429       .  S
C666        C667   1.404       .  A
C666        H671   1.084       .  S
C667        C668   1.413       .  A
C668        N669   1.432       .  S
N669        H673   1.046       .  S
N669        H674   1.046       .  S
N672        H675   1.046       .  S
N672        H676   1.046       .  S
C677        C678   1.408       .  A
C677        C682   1.407       .  A
C677        H684   1.081       .  S
C678        C679   1.418       .  A
C679        C680   1.410       .  A
C679        N686   1.431       .  S
C680        C681   1.406       .  A
C680        H685   1.084       .  S
C681        C682   1.413       .  A
C682        N683   1.432       .  S
N683        H687   1.046       .  S
N683        H688   1.045       .  S
N686        H689   1.045       .  S
N686        H690   1.046       .  S
