geometry optimzed in LAMMPS
_audit_creation_date              2020-11-30 
_audit_creation_method            'lammps2cif' 
_symmetry_space_group_name_H-M    'P1' 
_symmetry_Int_Tables_number       1 
_symmetry_cell_setting            triclinic 
loop_ 
_symmetry_equiv_pos_as_xyz 
  x,y,z 
_cell_length_a                    37.20934775115008 
_cell_length_b                    36.66922945776863 
_cell_length_c                    44.59472519988327 
_cell_angle_alpha                 89.35462947610107 
_cell_angle_beta                  89.32940047981661 
_cell_angle_gamma                 95.530003764669 
loop_ 
_atom_site_label 
_atom_site_type_symbol 
_atom_site_fract_x 
_atom_site_fract_y 
_atom_site_fract_z 
_atom_site_charge 
N1          N  0.17697243  0.98033890  0.66200686    -0.27590
N2          N  0.19490647  0.98104889  0.68744665    -0.35450
C3          C  0.17120349  0.98177103  0.71042569     0.00750
C4          C  0.13671357  0.98074230  0.69887230     0.06770
C5          C  0.14142297  0.98000324  0.66809873    -0.06330
H6          H  0.17858168  0.98410662  0.73377376     0.07440
H7          H  0.12076168  0.98128804  0.65135126     0.08640
Cu8        Cu  0.25110244  0.98391889  0.68931183     0.44170
Cu9        Cu  0.20217196  0.48483585  0.62030260     0.41990
Cu10       Cu  0.30023814  0.50403355  0.61955909     0.43880
N11         N  0.30723342  0.99268822  0.68599669    -0.34980
N12         N  0.32502269  0.00254613  0.66096752    -0.29230
C13         C  0.36041408  0.00912107  0.66702323    -0.05330
C14         C  0.36549028  0.00301019  0.69747217     0.06880
C15         C  0.33094502  0.99168201  0.70841042     0.00680
H16         H  0.38084844  0.01772699  0.65031796     0.08330
H17         H  0.32318692  0.98271055  0.73088447     0.07410
N18         N  0.26897891  0.49944361  0.58125869    -0.36430
N19         N  0.23338970  0.49284731  0.58160855    -0.28610
C20         C  0.22151769  0.49192669  0.55324255    -0.03850
C21         C  0.25105557  0.49791209  0.53414140     0.04760
C22         C  0.28071213  0.50247803  0.55260831     0.02850
H23         H  0.19347587  0.48694825  0.54704281     0.07960
H24         H  0.30872471  0.50781622  0.54578681     0.06790
N25         N  0.32273289  0.49585459  0.37256642    -0.27590
N26         N  0.30365133  0.49073819  0.34793382    -0.35450
C27         C  0.32605684  0.49069172  0.32414776     0.00750
C28         C  0.36109926  0.49519228  0.33433457     0.06770
C29         C  0.35800418  0.49885343  0.36512042    -0.06330
H30         H  0.31731909  0.48785790  0.30117602     0.07440
H31         H  0.37978822  0.50304996  0.38094834     0.08640
Cu32       Cu  0.24825333  0.48401071  0.34757165     0.44170
Cu33       Cu  0.29932828  0.49866121  0.41476530     0.41990
Cu34       Cu  0.20128388  0.50090665  0.41611430     0.43880
N35         N  0.19332198  0.48537226  0.35055146    -0.34980
N36         N  0.17619342  0.49461556  0.37494215    -0.29230
C37         C  0.14142247  0.49732074  0.36823243    -0.05330
C38         C  0.13634520  0.48917238  0.33807424     0.06860
C39         C  0.16993809  0.48083176  0.32797936     0.00680
H40         H  0.12146995  0.50505139  0.38417314     0.08330
H41         H  0.17739377  0.47190451  0.30599408     0.07410
N42         N  0.23288174  0.50036332  0.45415033    -0.36430
N43         N  0.26840247  0.49994053  0.45363381    -0.28610
C44         C  0.28033343  0.49933245  0.48196560    -0.03850
C45         C  0.25090990  0.49906936  0.50118995     0.04760
C46         C  0.22126793  0.49966126  0.48284250     0.02850
H47         H  0.30830904  0.49857067  0.48805614     0.07960
H48         H  0.19330401  0.49955038  0.48977651     0.06790
C49         C  0.00129968  0.49725681  0.27080105    -0.02790
C50         C  0.50219198  0.50276170  0.76561196    -0.02790
N51         N  0.99783677  0.17327429  0.16037969    -0.27590
N52         N  0.00153432  0.19193410  0.18554132    -0.35450
C53         C  0.00128458  0.16818441  0.20875848     0.00750
C54         C  0.99686772  0.13286158  0.19778839     0.06770
C55         C  0.99497799  0.13715246  0.16696637    -0.06330
H56         H  0.00463025  0.17603552  0.23195134     0.07440
H57         H  0.99298611  0.11566608  0.15047278     0.08640
Cu58       Cu  0.00755649  0.24894302  0.18733387     0.44170
Cu59       Cu  0.99904129  0.19810573  0.11825020     0.41990
Cu60       Cu  0.00091845  0.29798185  0.11771370     0.43880
N61         N  0.00906820  0.30580619  0.18422160    -0.34980
N62         N  0.00488794  0.32373406  0.15886692    -0.29230
C63         C  0.00414611  0.35962077  0.16467930    -0.05330
C64         C  0.00888053  0.36493659  0.19525393     0.06880
C65         C  0.01176260  0.32988943  0.20675511     0.00680
H66         H  0.99909009  0.37988670  0.14787084     0.08330
H67         H  0.01495168  0.32217210  0.22998291     0.07410
N68         N  0.00223756  0.26645287  0.07945401    -0.36430
N69         N  0.00196334  0.23034235  0.07953301    -0.28610
C70         C  0.00389979  0.21890362  0.05103266    -0.03850
C71         C  0.00538322  0.24926711  0.03219933     0.04760
C72         C  0.00426340  0.27889453  0.05095975     0.02850
H73         H  0.00401304  0.19057081  0.04455119     0.07960
H74         H  0.00495399  0.30745965  0.04444391     0.06790
N75         N  0.48939109  0.32475913  0.87294354    -0.27590
N76         N  0.47973952  0.30574436  0.84886821    -0.35450
C77         C  0.47701229  0.32883085  0.82560543     0.00750
C78         C  0.48497608  0.36419286  0.83555692     0.06770
C79         C  0.49301205  0.36059549  0.86562571    -0.06330
H80         H  0.47137974  0.32033766  0.80285063     0.07440
H81         H  0.50166041  0.38235975  0.88086803     0.08640
Cu82       Cu  0.47547303  0.24940980  0.84746575     0.44170
Cu83       Cu  0.49920821  0.30071493  0.91395795     0.41990
Cu84       Cu  0.50713405  0.20310747  0.91265120     0.43880
N85         N  0.48587430  0.19529380  0.84789747    -0.34980
N86         N  0.49966893  0.17899462  0.87103138    -0.29230
C87         C  0.50653809  0.14514108  0.86302141    -0.05330
C88         C  0.49661183  0.13979897  0.83335025     0.06880
C89         C  0.48301520  0.17213959  0.82475294     0.00680
H90         H  0.51796142  0.12582010  0.87780010     0.08330
H91         H  0.47149718  0.17858316  0.80343350     0.07410
N92         N  0.50786178  0.23339115  0.95171182    -0.36430
N93         N  0.50523403  0.26909311  0.95206594    -0.28610
C94         C  0.50476858  0.28024016  0.98066439    -0.03850
C95         C  0.50698014  0.25009537  0.99921342     0.04760
C96         C  0.50895567  0.22083888  0.98013502     0.02850
H97         H  0.50191520  0.30807156  0.98741458     0.07960
H98         H  0.51024478  0.19240823  0.98640206     0.06790
C99         C  0.50091395  0.03736978  0.78576061    -0.06430
C100        C  0.00194143  0.07130506  0.77003764    -0.17560
C101        C  0.00217786  0.10490103  0.78451782     0.10770
C102        C  0.49812068  0.10562626  0.81597700    -0.06350
C103        C  0.49388534  0.07232249  0.83176867    -0.17590
C104        C  0.49385342  0.03852185  0.81756507     0.10800
S105        S  0.01152285  0.14535999  0.76137049    -0.32550
S106        S  0.48068217  0.00053256  0.84282281    -0.32560
H107        H  0.45135369  0.48547436  0.82619350     0.28810
H108        H  0.03525486  0.16345243  0.78192322     0.28810
H109        H  0.00536796  0.07180564  0.74586537     0.19400
H110        H  0.48873582  0.07248074  0.85573486     0.19400
C111        C  0.49836430  0.46554325  0.78395600    -0.06430
C112        C  0.46902533  0.43860810  0.77882749    -0.17560
C113        C  0.46336559  0.40631469  0.79578776     0.10770
C114        C  0.48882106  0.39816258  0.81726545    -0.06350
C115        C  0.01977222  0.42230612  0.82073306    -0.17590
C116        C  0.02542705  0.45514722  0.80420128     0.10800
S117        S  0.42202801  0.37760112  0.78970372    -0.32550
S118        S  0.06643435  0.48370134  0.81179006    -0.32560
H119        H  0.08542748  0.45683685  0.82558087     0.28810
H120        H  0.41606949  0.36802790  0.82011368     0.28810
H121        H  0.44951536  0.44194424  0.76159477     0.19400
H122        H  0.03970854  0.41536496  0.83680028     0.19400
C123        C  0.00712686  0.39918291  0.21298987    -0.06430
C124        C  0.99509216  0.39546817  0.24276346    -0.17560
C125        C  0.99350078  0.42555681  0.26157648     0.10770
C126        C  0.00150352  0.46219473  0.25015645    -0.06350
C127        C  0.51428370  0.46544369  0.21999806    -0.17590
C128        C  0.51798695  0.43480028  0.20180061     0.10800
S129        S  0.98126793  0.41482111  0.30016179    -0.32550
S130        S  0.54022632  0.44180820  0.16565083    -0.32560
H131        H  0.54578481  0.48027287  0.16622499     0.28810
H132        H  0.96208373  0.38044642  0.29539368     0.28810
H133        H  0.98738229  0.36836477  0.25183417     0.19400
H134        H  0.52384677  0.49199225  0.21088523     0.19400
C135        C  0.00479184  0.03389998  0.25136396    -0.06430
C136        C  0.47718486  0.03622216  0.22977808    -0.17560
C137        C  0.47382522  0.06745925  0.21213639     0.10770
C138        C  0.99862533  0.09848038  0.21530115    -0.06350
C139        C  0.02643095  0.09710376  0.23583675    -0.17590
C140        C  0.03035740  0.06616787  0.25386035     0.10800
S141        S  0.43618692  0.06628546  0.18695471    -0.32550
S142        S  0.06926778  0.07427865  0.27795401    -0.32560
H143        H  0.05578003  0.05832026  0.30475082     0.28810
H144        H  0.42949803  0.10298928  0.19115238     0.28810
H145        H  0.45727770  0.01310074  0.22674520     0.19400
H146        H  0.04570831  0.12104358  0.23787276     0.19400
C147        C  0.39490903  0.49675321  0.31651904    -0.06430
C148        C  0.42247165  0.02385530  0.32315949    -0.17560
C149        C  0.45596105  0.02621515  0.30811371     0.10770
C150        C  0.46366974  0.49857198  0.28713015    -0.06350
C151        C  0.43342006  0.47495574  0.27789932    -0.17590
C152        C  0.40016815  0.47274217  0.29285798     0.10800
S153        S  0.48789547  0.06435319  0.31746564    -0.32550
S154        S  0.36646739  0.43723014  0.28132191    -0.32560
H155        H  0.35558426  0.42661750  0.31070826     0.28810
H156        H  0.46758450  0.08007891  0.33981978     0.28810
H157        H  0.41742365  0.04359827  0.34020379     0.19400
H158        H  0.43510566  0.45716740  0.25894284     0.19400
C159        C  0.10215577  0.48940782  0.32099472    -0.06430
C160        C  0.06929834  0.48504517  0.33693931    -0.17560
C161        C  0.03576498  0.48671263  0.32300986     0.10770
C162        C  0.03467771  0.49309781  0.29115163    -0.06350
C163        C  0.06795210  0.99322121  0.27534498    -0.17590
C164        C  0.10109710  0.99387058  0.28957141     0.10800
S165        S  0.99689248  0.47920892  0.34790214    -0.32550
S166        S  0.14015609  0.00649919  0.26607223    -0.32560
H167        H  0.15548686  0.03274808  0.28617673     0.28810
H168        H  0.01298520  0.45947066  0.37051197     0.28810
H169        H  0.06980532  0.48054141  0.36092343     0.19400
H170        H  0.06867749  0.99737527  0.25128124     0.19400
C171        C  0.03873313  0.50119618  0.74749274    -0.06430
C172        C  0.04064825  0.46924883  0.72985989    -0.17560
C173        C  0.07186411  0.46164337  0.71422723     0.10770
C174        C  0.10305579  0.98626942  0.71545934    -0.06350
C175        C  0.10229260  0.01786548  0.73237873    -0.17590
C176        C  0.07154756  0.02589145  0.74856282     0.10800
S177        S  0.07028377  0.41946648  0.69366585    -0.32550
S178        S  0.08042588  0.06781982  0.76941064    -0.32560
H179        H  0.06818498  0.05464838  0.79759063     0.28810
H180        H  0.10661734  0.41343128  0.69802021     0.28810
H181        H  0.01709838  0.44964671  0.72818450     0.19400
H182        H  0.12656335  0.03672467  0.73310322     0.19400
C183        C  0.40045086  0.00642728  0.71412819    -0.06430
C184        C  0.43337997  0.50652025  0.69822659    -0.17560
C185        C  0.46706835  0.50883476  0.71277775     0.10770
C186        C  0.46807165  0.50538678  0.74483006    -0.06350
C187        C  0.43466146  0.00768301  0.76008108    -0.17590
C188        C  0.40211655  0.01030059  0.74550705     0.10800
S189        S  0.50623137  0.52277200  0.68944629    -0.32550
S190        S  0.36526408  0.02278438  0.76861150    -0.32560
H191        H  0.35300700  0.04691246  0.74708507     0.28810
H192        H  0.49087147  0.51354913  0.66154350     0.28810
H193        H  0.43293017  0.50646867  0.67401964     0.19400
H194        H  0.43394503  0.00886107  0.78417051     0.19400
N195        N  0.17698938  0.48035153  0.66200849    -0.27590
N196        N  0.19492491  0.48106512  0.68744758    -0.35450
C197        C  0.17122300  0.48178604  0.71042747     0.00750
C198        C  0.13673220  0.48075255  0.69887541     0.06770
C199        C  0.14143989  0.48001218  0.66810170    -0.06330
H200        H  0.17860235  0.48412324  0.73377520     0.07440
H201        H  0.12077714  0.48129290  0.65135499     0.08640
Cu202      Cu  0.25112080  0.48393811  0.68931056     0.44170
Cu203      Cu  0.20215669  0.98482574  0.62030183     0.41990
Cu204      Cu  0.30022057  0.00403012  0.61956255     0.43880
N205        N  0.30725165  0.49270253  0.68599420    -0.34980
N206        N  0.32504153  0.50255406  0.66096396    -0.29230
C207        C  0.36043346  0.50912559  0.66701911    -0.05330
C208        C  0.36550902  0.50301918  0.69746880     0.06880
C209        C  0.33096297  0.49169714  0.70840810     0.00680
H210        H  0.38086868  0.51772581  0.65031303     0.08330
H211        H  0.32320416  0.48272997  0.73088305     0.07410
N212        N  0.26896437  0.99944229  0.58126059    -0.36430
N213        N  0.23337545  0.99284321  0.58160895    -0.28610
C214        C  0.22150496  0.99192455  0.55324251    -0.03850
C215        C  0.25104364  0.99791412  0.53414264     0.04760
C216        C  0.28069907  0.00248047  0.55261075     0.02850
H217        H  0.19346367  0.98694443  0.54704160     0.07960
H218        H  0.30871181  0.00782128  0.54579043     0.06790
N219        N  0.32272489  0.99585530  0.37256884    -0.27590
N220        N  0.30364351  0.99073396  0.34793659    -0.35450
C221        C  0.32604927  0.99068474  0.32415087     0.00750
C222        C  0.36109165  0.99518880  0.33433758     0.06770
C223        C  0.35799624  0.99885475  0.36512294    -0.06330
H224        H  0.31731173  0.98784695  0.30117933     0.07440
H225        H  0.37978013  0.00305503  0.38095064     0.08640
Cu226      Cu  0.24824530  0.98400477  0.34757401     0.44170
Cu227      Cu  0.29932040  0.99866710  0.41476735     0.41990
Cu228      Cu  0.20127624  0.00090928  0.41611470     0.43880
N229        N  0.19331388  0.98536820  0.35055304    -0.34980
N230        N  0.17618578  0.99461460  0.37494299    -0.29230
C231        C  0.14141506  0.99732053  0.36823303    -0.05330
C232        C  0.13633732  0.98916946  0.33807543     0.06860
C233        C  0.16992974  0.98082652  0.32798113     0.00680
H234        H  0.12146306  0.00505370  0.38417314     0.08330
H235        H  0.17738489  0.97189712  0.30599637     0.07410
N236        N  0.23287306  0.00036828  0.45415125    -0.36430
N237        N  0.26839394  0.99994698  0.45363549    -0.28610
C238        C  0.28032395  0.99933879  0.48196758    -0.03850
C239        C  0.25089957  0.99907394  0.50119124     0.04760
C240        C  0.22125817  0.99966508  0.48284311     0.02850
H241        H  0.30829938  0.99857727  0.48805879     0.07960
H242        H  0.19329384  0.99955221  0.48977644     0.06790
C243        C  0.00129155  0.99725501  0.27080269    -0.02790
C244        C  0.50217705  0.00276094  0.76561044    -0.02790
N245        N  0.99784237  0.67327538  0.16037725    -0.27590
N246        N  0.00153823  0.69193502  0.18553906    -0.35450
C247        C  0.00128931  0.66818522  0.20875608     0.00750
C248        C  0.99687479  0.63286244  0.19778571     0.06770
C249        C  0.99498558  0.63715351  0.16696366    -0.06330
H250        H  0.00463367  0.67603626  0.23194907     0.07440
H251        H  0.99299507  0.61566732  0.15046989     0.08640
Cu252      Cu  0.00755644  0.74894393  0.18733199     0.44170
Cu253      Cu  0.99904527  0.69810739  0.11824801     0.41990
Cu254      Cu  0.00091206  0.79798285  0.11771247     0.43880
N255        N  0.00906403  0.80580682  0.18422029    -0.34980
N256        N  0.00488125  0.82373459  0.15886598    -0.29230
C257        C  0.00413744  0.85962094  0.16467886    -0.05330
C258        C  0.00887327  0.86493671  0.19525337     0.06880
C259        C  0.01175817  0.82988981  0.20675398     0.00680
H260        H  0.99907935  0.87988662  0.14787080     0.08330
H261        H  0.01494924  0.82217246  0.22998151     0.07410
N262        N  0.00223355  0.76645467  0.07945241    -0.36430
N263        N  0.00196336  0.73034451  0.07953112    -0.28610
C264        C  0.00390064  0.71890636  0.05103066    -0.03850
C265        C  0.00538036  0.74926981  0.03219754     0.04760
C266        C  0.00425751  0.77889664  0.05095819     0.02850
H267        H  0.00401698  0.69057392  0.04454899     0.07960
H268        H  0.00494492  0.80746158  0.04444254     0.06790
N269        N  0.48938128  0.82475870  0.87294096    -0.27590
N270        N  0.47973283  0.80574284  0.84886547    -0.35450
C271        C  0.47700555  0.82882840  0.82560208     0.00750
C272        C  0.48496600  0.86419093  0.83555334     0.06770
C273        C  0.49300005  0.86059490  0.86562264    -0.06330
H274        H  0.47137563  0.82033430  0.80284709     0.07440
H275        H  0.50164607  0.88236000  0.88086490     0.08640
Cu276      Cu  0.47547182  0.74940857  0.84746347     0.44170
Cu277      Cu  0.49919875  0.80071629  0.91395602     0.41990
Cu278      Cu  0.50713848  0.70311129  0.91264906     0.43880
N279        N  0.48587952  0.69529465  0.84789538    -0.34980
N280        N  0.49967615  0.67899744  0.87102933    -0.29230
C281        C  0.50654846  0.64514474  0.86301966    -0.05330
C282        C  0.49662215  0.63980121  0.83334867     0.06880
C283        C  0.48302233  0.67214002  0.82475109     0.00680
H284        H  0.51797344  0.62582509  0.87779854     0.08330
H285        H  0.47150305  0.67858185  0.80343176     0.07410
N286        N  0.50786127  0.73339456  0.95170978    -0.36430
N287        N  0.50522825  0.76909561  0.95206405    -0.28610
C288        C  0.50476097  0.78024229  0.98066255    -0.03850
C289        C  0.50697683  0.75009818  0.99921147     0.04760
C290        C  0.50895677  0.72084250  0.98013294     0.02850
H291        H  0.50190362  0.80807287  0.98741286     0.07960
H292        H  0.51025015  0.69241244  0.98639986     0.06790
C293        C  0.50092786  0.53737124  0.78576124    -0.06430
C294        C  0.00195450  0.57130607  0.77003758    -0.17560
C295        C  0.00218945  0.60490236  0.78451710     0.10770
C296        C  0.49813250  0.60562828  0.81597615    -0.06350
C297        C  0.49389809  0.57232500  0.83176850    -0.17590
C298        C  0.49386677  0.53852409  0.81756554     0.10800
S299        S  0.01153210  0.64536098  0.76136900    -0.32550
S300        S  0.48069394  0.50053536  0.84282329    -0.32560
H301        H  0.45134403  0.98546766  0.82619268     0.28810
H302        H  0.03526283  0.66345566  0.78192152     0.28810
H303        H  0.00538132  0.57180597  0.74586530     0.19400
H304        H  0.48874830  0.57248382  0.85573465     0.19400
C305        C  0.49835131  0.96554175  0.78395334    -0.06430
C306        C  0.46901447  0.93860480  0.77882302    -0.17560
C307        C  0.46335596  0.90631065  0.79578241     0.10770
C308        C  0.48881053  0.89816019  0.81726140    -0.06350
C309        C  0.01976057  0.92230512  0.82073007    -0.17590
C310        C  0.02541448  0.95514650  0.80419858     0.10800
S311        S  0.42202127  0.87759374  0.78969522    -0.32550
S312        S  0.06642075  0.98370206  0.81178775    -0.32560
H313        H  0.08541326  0.95683995  0.82558255     0.28810
H314        H  0.41606019  0.86801979  0.82010476     0.28810
H315        H  0.44950560  0.94193995  0.76158917     0.19400
H316        H  0.03969663  0.91536478  0.83679781     0.19400
C317        C  0.00711916  0.89918261  0.21298983    -0.06430
C318        C  0.99508722  0.89546695  0.24276415    -0.17560
C319        C  0.99349584  0.92555520  0.26157764     0.10770
C320        C  0.00149563  0.96219344  0.25015753    -0.06350
C321        C  0.51427270  0.96544325  0.21999797    -0.17590
C322        C  0.51797568  0.93480041  0.20179984     0.10800
S323        S  0.98126700  0.91481896  0.30016370    -0.32550
S324        S  0.54021069  0.94181012  0.16564842    -0.32560
H325        H  0.54576261  0.98027520  0.16622095     0.28810
H326        H  0.96208696  0.88044179  0.29539725     0.28810
H327        H  0.98737957  0.86836319  0.25183499     0.19400
H328        H  0.52383378  0.99199218  0.21088482     0.19400
C329        C  0.00480024  0.53390145  0.25136187    -0.06430
C330        C  0.47719470  0.53622230  0.22977483    -0.17560
C331        C  0.47383494  0.56745889  0.21213259     0.10770
C332        C  0.99863308  0.59848132  0.21529848    -0.06350
C333        C  0.02643762  0.59710592  0.23583527    -0.17590
C334        C  0.03036456  0.56617022  0.25385899     0.10800
S335        S  0.43619897  0.56628264  0.18694838    -0.32550
S336        S  0.06927451  0.57428231  0.27795305    -0.32560
H337        H  0.05578885  0.55832080  0.30474930     0.28810
H338        H  0.42950689  0.60298559  0.19114594     0.28810
H339        H  0.45728883  0.51310006  0.22674092     0.19400
H340        H  0.04571388  0.62104650  0.23787195     0.19400
C341        C  0.39490152  0.99674916  0.31652213    -0.06430
C342        C  0.42248051  0.52385674  0.32315906    -0.17560
C343        C  0.45597018  0.52621631  0.30811378     0.10770
C344        C  0.46366168  0.99856916  0.28713187    -0.06350
C345        C  0.43341310  0.97494952  0.27790374    -0.17590
C346        C  0.40016179  0.97273513  0.29286344     0.10800
S347        S  0.48790581  0.56435226  0.31746805    -0.32550
S348        S  0.36646346  0.93721811  0.28133205    -0.32560
H349        H  0.35558171  0.92661017  0.31071971     0.28810
H350        H  0.46760001  0.58006976  0.33983015     0.28810
H351        H  0.41743319  0.54359823  0.34020474     0.19400
H352        H  0.43509893  0.95715914  0.25894864     0.19400
C353        C  0.10214784  0.98940503  0.32099599    -0.06430
C354        C  0.06929056  0.98504443  0.33694089    -0.17560
C355        C  0.03575717  0.98671219  0.32301155     0.10770
C356        C  0.03466973  0.99309610  0.29115317    -0.06350
C357        C  0.06796032  0.49322455  0.27534361    -0.17590
C358        C  0.10110523  0.49387495  0.28957025     0.10800
S359        S  0.99688470  0.97920993  0.34790402    -0.32550
S360        S  0.14016398  0.50650740  0.26607173    -0.32560
H361        H  0.15549314  0.53275557  0.28617754     0.28810
H362        H  0.01297746  0.95947342  0.37051494     0.28810
H363        H  0.06979769  0.98054178  0.36092514     0.19400
H364        H  0.06868588  0.49737961  0.25127999     0.19400
C365        C  0.03871654  0.00119507  0.74748887    -0.06430
C366        C  0.04062757  0.96924974  0.72985284    -0.17560
C367        C  0.07184214  0.96164200  0.71421951     0.10770
C368        C  0.10307437  0.48627582  0.71546367    -0.06350
C369        C  0.10230780  0.51787281  0.73238128    -0.17590
C370        C  0.07156227  0.52589554  0.74856611     0.10800
S371        S  0.07025554  0.91946859  0.69365292    -0.32550
S372        S  0.08043859  0.56782297  0.76941552    -0.32560
H373        H  0.06819835  0.55464883  0.79759495     0.28810
H374        H  0.10658702  0.91342560  0.69800793     0.28810
H375        H  0.01707554  0.94965067  0.72817596     0.19400
H376        H  0.12657658  0.53673495  0.73310431     0.19400
C377        C  0.40046931  0.50643360  0.71412511    -0.06430
C378        C  0.43336169  0.00652220  0.69822854    -0.17560
C379        C  0.46705064  0.00883981  0.71277884     0.10770
C380        C  0.46805525  0.00538654  0.74483061    -0.06350
C381        C  0.43467770  0.50768894  0.76007901    -0.17590
C382        C  0.40213462  0.51031136  0.74550351     0.10800
S383        S  0.50621233  0.02278773  0.68944866    -0.32550
S384        S  0.36528506  0.52280863  0.76860484    -0.32560
H385        H  0.35303333  0.54693470  0.74707423     0.28810
H386        H  0.49084941  0.01358637  0.66154285     0.28810
H387        H  0.43291124  0.00647386  0.67402163     0.19400
H388        H  0.43396010  0.50886945  0.78416841     0.19400
N389        N  0.67697242  0.98033895  0.66200693    -0.27590
N390        N  0.69490647  0.98104892  0.68744672    -0.35450
C391        C  0.67120347  0.98177106  0.71042576     0.00750
C392        C  0.63671356  0.98074234  0.69887237     0.06770
C393        C  0.64142296  0.98000329  0.66809880    -0.06330
H394        H  0.67858166  0.98410664  0.73377383     0.07440
H395        H  0.62076168  0.98128810  0.65135133     0.08640
Cu396      Cu  0.75110244  0.98391891  0.68931190     0.44170
Cu397      Cu  0.70217197  0.48483582  0.62030253     0.41990
Cu398      Cu  0.80023815  0.50403364  0.61955905     0.43880
N399        N  0.80723342  0.99268821  0.68599674    -0.34980
N400        N  0.82502269  0.00254608  0.66096756    -0.29230
C401        C  0.86041407  0.00912100  0.66702326    -0.05330
C402        C  0.86549029  0.00301015  0.69747220     0.06880
C403        C  0.83094502  0.99168201  0.70841046     0.00680
H404        H  0.88084843  0.01772690  0.65031799     0.08330
H405        H  0.82318692  0.98271057  0.73088452     0.07410
N406        N  0.76897894  0.49944367  0.58125864    -0.36430
N407        N  0.73338973  0.49284732  0.58160849    -0.28610
C408        C  0.72151775  0.49192668  0.55324248    -0.03850
C409        C  0.75105564  0.49791214  0.53414135     0.04760
C410        C  0.78071218  0.50247812  0.55260828     0.02850
H411        H  0.69347594  0.48694820  0.54704273     0.07960
H412        H  0.80872476  0.50781637  0.54578678     0.06790
N413        N  0.82273301  0.49585474  0.37256637    -0.27590
N414        N  0.80365146  0.49073814  0.34793378    -0.35450
C415        C  0.82605700  0.49069149  0.32414775     0.00750
C416        C  0.86109940  0.49519220  0.33433457     0.06770
C417        C  0.85800431  0.49885358  0.36512039    -0.06330
H418        H  0.81731928  0.48785746  0.30117601     0.07440
H419        H  0.87978835  0.50305027  0.38094830     0.08640
Cu420      Cu  0.74825345  0.48401068  0.34757155     0.44170
Cu421      Cu  0.79932841  0.49866153  0.41476524     0.41990
Cu422      Cu  0.70128402  0.50090649  0.41611423     0.43880
N423        N  0.69332210  0.48537229  0.35055136    -0.34980
N424        N  0.67619354  0.49461547  0.37494209    -0.29230
C425        C  0.64142257  0.49732065  0.36823242    -0.05330
C426        C  0.63634529  0.48917241  0.33807422     0.06860
C427        C  0.66993818  0.48083188  0.32797926     0.00680
H428        H  0.62147006  0.50505120  0.38417317     0.08330
H429        H  0.67739382  0.47190475  0.30599393     0.07410
N430        N  0.73288185  0.50036331  0.45415027    -0.36430
N431        N  0.76840260  0.49994071  0.45363377    -0.28610
C432        C  0.78033355  0.49933268  0.48196556    -0.03850
C433        C  0.75090999  0.49906942  0.50118990     0.04760
C434        C  0.72126802  0.49966118  0.48284243     0.02850
H435        H  0.80830918  0.49857104  0.48805611     0.07960
H436        H  0.69330408  0.49955015  0.48977643     0.06790
C437        C  0.50129964  0.49725684  0.27080123    -0.02790
C438        C  0.00219194  0.50276174  0.76561198    -0.02790
N439        N  0.49783664  0.17327442  0.16037973    -0.27590
N440        N  0.50153432  0.19193418  0.18554138    -0.35450
C441        C  0.50128464  0.16818444  0.20875849     0.00750
C442        C  0.49686768  0.13286164  0.19778836     0.06770
C443        C  0.49497782  0.13715257  0.16696636    -0.06330
H444        H  0.50463043  0.17603550  0.23195136     0.07440
H445        H  0.49298584  0.11566622  0.15047274     0.08640
Cu446      Cu  0.50755654  0.24894310  0.18733397     0.44170
Cu447      Cu  0.49904112  0.19810592  0.11825027     0.41990
Cu448      Cu  0.50091884  0.29798206  0.11771377     0.43880
N449        N  0.50906834  0.30580629  0.18422172    -0.34980
N450        N  0.50488825  0.32373421  0.15886702    -0.29230
C451        C  0.50414645  0.35962092  0.16467942    -0.05330
C452        C  0.50888069  0.36493669  0.19525407     0.06880
C453        C  0.51176263  0.32988951  0.20675526     0.00680
H454        H  0.49909057  0.37988690  0.14787095     0.08330
H455        H  0.51495154  0.32217215  0.22998307     0.07410
N456        N  0.50223775  0.26645307  0.07945407    -0.36430
N457        N  0.50196333  0.23034253  0.07953308    -0.28610
C458        C  0.50389968  0.21890377  0.05103274    -0.03850
C459        C  0.50538327  0.24926726  0.03219940     0.04760
C460        C  0.50426363  0.27889471  0.05095980     0.02850
H461        H  0.50401276  0.19057094  0.04455128     0.07960
H462        H  0.50495438  0.30745984  0.04444395     0.06790
N463        N  0.98939104  0.32475912  0.87294351    -0.27590
N464        N  0.97973949  0.30574436  0.84886817    -0.35450
C465        C  0.97701226  0.32883086  0.82560539     0.00750
C466        C  0.98497602  0.36419287  0.83555690     0.06770
C467        C  0.99301198  0.36059548  0.86562569    -0.06330
H468        H  0.97137974  0.32033768  0.80285058     0.07440
H469        H  0.00166032  0.38235974  0.88086802     0.08640
Cu470      Cu  0.97547306  0.24940980  0.84746567     0.44170
Cu471      Cu  0.99920815  0.30071490  0.91395791     0.41990
Cu472      Cu  0.00713417  0.20310749  0.91265111     0.43880
N473        N  0.98587437  0.19529381  0.84789739    -0.34980
N474        N  0.99966903  0.17899464  0.87103129    -0.29230
C475        C  0.00653820  0.14514110  0.86302133    -0.05330
C476        C  0.99661190  0.13979897  0.83335017     0.06880
C477        C  0.98301525  0.17213958  0.82475287     0.00680
H478        H  0.01796154  0.12582013  0.87780001     0.08330
H479        H  0.97149721  0.17858314  0.80343343     0.07410
N480        N  0.00786184  0.23339112  0.95171174    -0.36430
N481        N  0.00523400  0.26909306  0.95206589    -0.28610
C482        C  0.00476850  0.28024007  0.98066434    -0.03850
C483        C  0.00698012  0.25009527  0.99921335     0.04760
C484        C  0.00895573  0.22083882  0.98013493     0.02850
H485        H  0.00191505  0.30807145  0.98741455     0.07960
H486        H  0.01024490  0.19240817  0.98640195     0.06790
C487        C  0.00091401  0.03736976  0.78576057    -0.06430
C488        C  0.50194138  0.07130509  0.77003769    -0.17560
C489        C  0.50217781  0.10490106  0.78451788     0.10770
C490        C  0.99812074  0.10562626  0.81597694    -0.06350
C491        C  0.99388541  0.07232250  0.83176862    -0.17590
C492        C  0.99385350  0.03852185  0.81756504     0.10800
S493        S  0.51152282  0.14536003  0.76137057    -0.32550
S494        S  0.98068228  0.00053257  0.84282280    -0.32560
H495        H  0.95135360  0.48547437  0.82619348     0.28810
H496        H  0.53525482  0.16345245  0.78192331     0.28810
H497        H  0.50536792  0.07180568  0.74586542     0.19400
H498        H  0.98873591  0.07248076  0.85573482     0.19400
C499        C  0.99836425  0.46554328  0.78395601    -0.06430
C500        C  0.96902529  0.43860813  0.77882748    -0.17560
C501        C  0.96336554  0.40631471  0.79578774     0.10770
C502        C  0.98882101  0.39816259  0.81726543    -0.06350
C503        C  0.51977228  0.42230610  0.82073306    -0.17590
C504        C  0.52542711  0.45514719  0.80420127     0.10800
S505        S  0.92202797  0.37760113  0.78970367    -0.32550
S506        S  0.56643442  0.48370131  0.81179003    -0.32560
H507        H  0.58542755  0.45683682  0.82558084     0.28810
H508        H  0.91606944  0.36802789  0.82011363     0.28810
H509        H  0.94951532  0.44194428  0.76159475     0.19400
H510        H  0.53970861  0.41536494  0.83680027     0.19400
C511        C  0.50712693  0.39918299  0.21299001    -0.06430
C512        C  0.49509185  0.39546824  0.24276350    -0.17560
C513        C  0.49350039  0.42555686  0.26157654     0.10770
C514        C  0.50150346  0.46219478  0.25015660    -0.06350
C515        C  0.01428344  0.46544363  0.21999782    -0.17590
C516        C  0.01798661  0.43480022  0.20180036     0.10800
S517        S  0.48126701  0.41482107  0.30016172    -0.32550
S518        S  0.04022554  0.44180818  0.16565040    -0.32560
H519        H  0.04578343  0.48027290  0.16622433     0.28810
H520        H  0.46208236  0.38044667  0.29539331     0.28810
H521        H  0.48738176  0.36836483  0.25183413     0.19400
H522        H  0.02384635  0.49199220  0.21088491     0.19400
C523        C  0.50479189  0.03389992  0.25136375    -0.06430
C524        C  0.97718499  0.03622210  0.22977813    -0.17560
C525        C  0.97382538  0.06745914  0.21213636     0.10770
C526        C  0.49862533  0.09848039  0.21530105    -0.06350
C527        C  0.52643116  0.09710362  0.23583643    -0.17590
C528        C  0.53035760  0.06616771  0.25385999     0.10800
S529        S  0.93618737  0.06628511  0.18695437    -0.32550
S530        S  0.56926810  0.07427831  0.27795353    -0.32560
H531        H  0.55578002  0.05832053  0.30475047     0.28810
H532        H  0.92949821  0.10298887  0.19115197     0.28810
H533        H  0.95727794  0.01310061  0.22674513     0.19400
H534        H  0.54570863  0.12104336  0.23787234     0.19400
C535        C  0.89490916  0.49675306  0.31651903    -0.06430
C536        C  0.92247167  0.02385515  0.32315982    -0.17560
C537        C  0.95596113  0.02621496  0.30811414     0.10770
C538        C  0.96366977  0.49857191  0.28712999    -0.06350
C539        C  0.93342020  0.47495531  0.27789946    -0.17590
C540        C  0.90016836  0.47274169  0.29285824     0.10800
S541        S  0.98789566  0.06435277  0.31746637    -0.32550
S542        S  0.86646782  0.43722914  0.28132270    -0.32560
H543        H  0.85558479  0.42661707  0.31070919     0.28810
H544        H  0.96758618  0.08007615  0.33982280     0.28810
H545        H  0.91742370  0.04359800  0.34020423     0.19400
H546        H  0.93510582  0.45716672  0.25894315     0.19400
C547        C  0.60215583  0.48940784  0.32099475    -0.06430
C548        C  0.56929842  0.48504487  0.33693935    -0.17560
C549        C  0.53576502  0.48671232  0.32300994     0.10770
C550        C  0.53467770  0.49309778  0.29115175    -0.06350
C551        C  0.56795210  0.99322091  0.27534489    -0.17590
C552        C  0.60109707  0.99387021  0.28957134     0.10800
S553        S  0.49689255  0.47920832  0.34790222    -0.32550
S554        S  0.64015610  0.00649826  0.26607208    -0.32560
H555        H  0.65548698  0.03274740  0.28617632     0.28810
H556        H  0.51298535  0.45946984  0.37051189     0.28810
H557        H  0.56980543  0.48054089  0.36092344     0.19400
H558        H  0.56867750  0.99737472  0.25128113     0.19400
C559        C  0.53873316  0.50119614  0.74749271    -0.06430
C560        C  0.54064828  0.46924879  0.72985986    -0.17560
C561        C  0.57186413  0.46164333  0.71422719     0.10770
C562        C  0.60305578  0.98626946  0.71545940    -0.06350
C563        C  0.60229257  0.01786551  0.73237879    -0.17590
C564        C  0.57154753  0.02589149  0.74856287     0.10800
S565        S  0.57028378  0.41946644  0.69366580    -0.32550
S566        S  0.58042583  0.06781985  0.76941068    -0.32560
H567        H  0.56818492  0.05464842  0.79759067     0.28810
H568        H  0.60661735  0.41343125  0.69802016     0.28810
H569        H  0.51709841  0.44964667  0.72818448     0.19400
H570        H  0.62656333  0.03672471  0.73310329     0.19400
C571        C  0.90045088  0.00642724  0.71412821    -0.06430
C572        C  0.93337997  0.50652029  0.69822657    -0.17560
C573        C  0.96706834  0.50883481  0.71277775     0.10770
C574        C  0.96807162  0.50538683  0.74483006    -0.06350
C575        C  0.93466151  0.00768297  0.76008109    -0.17590
C576        C  0.90211658  0.01030055  0.74550707     0.10800
S577        S  0.00623137  0.52277205  0.68944631    -0.32550
S578        S  0.86526413  0.02278435  0.76861154    -0.32560
H579        H  0.85300704  0.04691243  0.74708512     0.28810
H580        H  0.99087149  0.51354918  0.66154351     0.28810
H581        H  0.93293017  0.50646872  0.67401963     0.19400
H582        H  0.93394509  0.00886103  0.78417052     0.19400
N583        N  0.67698939  0.48035149  0.66200841    -0.27590
N584        N  0.69492492  0.48106510  0.68744751    -0.35450
C585        C  0.67122301  0.48178602  0.71042740     0.00750
C586        C  0.63673221  0.48075252  0.69887535     0.06770
C587        C  0.64143989  0.48001214  0.66810163    -0.06330
H588        H  0.67860237  0.48412322  0.73377512     0.07440
H589        H  0.62077715  0.48129286  0.65135492     0.08640
Cu590      Cu  0.75112081  0.48393810  0.68931050     0.44170
Cu591      Cu  0.70215668  0.98482579  0.62030191     0.41990
Cu592      Cu  0.80022056  0.00403004  0.61956259     0.43880
N593        N  0.80725165  0.49270256  0.68599415    -0.34980
N594        N  0.82504154  0.50255412  0.66096392    -0.29230
C595        C  0.86043347  0.50912565  0.66701908    -0.05330
C596        C  0.86550901  0.50301922  0.69746877     0.06880
C597        C  0.83096296  0.49169716  0.70840805     0.00680
H598        H  0.88086869  0.51772590  0.65031301     0.08330
H599        H  0.82320416  0.48272996  0.73088300     0.07410
N600        N  0.76896434  0.99944224  0.58126063    -0.36430
N601        N  0.73337541  0.99284323  0.58160901    -0.28610
C602        C  0.72150490  0.99192458  0.55324258    -0.03850
C603        C  0.75104357  0.99791408  0.53414270     0.04760
C604        C  0.78069902  0.00248038  0.55261079     0.02850
H605        H  0.69346361  0.98694450  0.54704168     0.07960
H606        H  0.80871176  0.00782115  0.54579046     0.06790
N607        N  0.82272477  0.99585514  0.37256888    -0.27590
N608        N  0.80364337  0.99073402  0.34793663    -0.35450
C609        C  0.82604911  0.99068499  0.32415088     0.00750
C610        C  0.86109149  0.99518890  0.33433758     0.06770
C611        C  0.85799611  0.99885459  0.36512297    -0.06330
H612        H  0.81731153  0.98784743  0.30117934     0.07440
H613        H  0.87978001  0.00305471  0.38095067     0.08640
Cu614      Cu  0.74824517  0.98400480  0.34757412     0.44170
Cu615      Cu  0.79932026  0.99866676  0.41476741     0.41990
Cu616      Cu  0.70127611  0.00090945  0.41611477     0.43880
N617        N  0.69331376  0.98536816  0.35055315    -0.34980
N618        N  0.67618566  0.99461469  0.37494305    -0.29230
C619        C  0.64141495  0.99732063  0.36823304    -0.05330
C620        C  0.63633723  0.98916942  0.33807546     0.06860
C621        C  0.66992964  0.98082639  0.32798124     0.00680
H622        H  0.62146295  0.00505391  0.38417310     0.08330
H623        H  0.67738483  0.97189685  0.30599653     0.07410
N624        N  0.73287295  0.00036830  0.45415131    -0.36430
N625        N  0.76839380  0.99994680  0.45363554    -0.28610
C626        C  0.78032383  0.99933856  0.48196763    -0.03850
C627        C  0.75089948  0.99907388  0.50119129     0.04760
C628        C  0.72125808  0.99966518  0.48284318     0.02850
H629        H  0.80829925  0.99857690  0.48805882     0.07960
H630        H  0.69329377  0.99955247  0.48977652     0.06790
C631        C  0.50129158  0.99725498  0.27080251    -0.02790
C632        C  0.00217710  0.00276090  0.76561042    -0.02790
N633        N  0.49784250  0.67327525  0.16037721    -0.27590
N634        N  0.50153827  0.69193494  0.18553901    -0.35450
C635        C  0.50128929  0.66818519  0.20875606     0.00750
C636        C  0.49687484  0.63286239  0.19778575     0.06770
C637        C  0.49498573  0.63715340  0.16696367    -0.06330
H638        H  0.50463356  0.67603629  0.23194906     0.07440
H639        H  0.49299529  0.61566717  0.15046994     0.08640
Cu640      Cu  0.50755644  0.74894385  0.18733188     0.44170
Cu641      Cu  0.49904541  0.69810720  0.11824794     0.41990
Cu642      Cu  0.50091164  0.79798263  0.11771240     0.43880
N643        N  0.50906393  0.80580672  0.18422016    -0.34980
N644        N  0.50488093  0.82373444  0.15886587    -0.29230
C645        C  0.50413708  0.85962079  0.16467874    -0.05330
C646        C  0.50887313  0.86493661  0.19525322     0.06880
C647        C  0.51175819  0.82988974  0.20675383     0.00680
H648        H  0.49907883  0.87988641  0.14787069     0.08330
H649        H  0.51494945  0.82217241  0.22998134     0.07410
N650        N  0.50223330  0.76645446  0.07945234    -0.36430
N651        N  0.50196333  0.73034432  0.07953105    -0.28610
C652        C  0.50390070  0.71890621  0.05103059    -0.03850
C653        C  0.50538026  0.74926966  0.03219747     0.04760
C654        C  0.50425722  0.77889645  0.05095814     0.02850
H655        H  0.50401721  0.69057379  0.04454890     0.07960
H656        H  0.50494448  0.80746139  0.04444250     0.06790
N657        N  0.98938134  0.82475872  0.87294100    -0.27590
N658        N  0.97973286  0.80574285  0.84886552    -0.35450
C659        C  0.97700558  0.82882840  0.82560212     0.00750
C660        C  0.98496606  0.86419093  0.83555336     0.06770
C661        C  0.99300014  0.86059492  0.86562266    -0.06330
H662        H  0.97137563  0.82033429  0.80284714     0.07440
H663        H  0.00164618  0.88236002  0.88086491     0.08640
Cu664      Cu  0.97547181  0.74940858  0.84746355     0.44170
Cu665      Cu  0.99919883  0.80071632  0.91395606     0.41990
Cu666      Cu  0.00713839  0.70311128  0.91264915     0.43880
N667        N  0.98587946  0.69529465  0.84789546    -0.34980
N668        N  0.99967607  0.67899743  0.87102941    -0.29230
C669        C  0.00654837  0.64514472  0.86301974    -0.05330
C670        C  0.99662209  0.63980121  0.83334874     0.06880
C671        C  0.98302229  0.67214003  0.82475117     0.00680
H672        H  0.01797334  0.62582507  0.87779863     0.08330
H673        H  0.97150303  0.67858188  0.80343183     0.07410
N674        N  0.00786124  0.73339460  0.95170986    -0.36430
N675        N  0.00522831  0.76909566  0.95206410    -0.28610
C676        C  0.00476108  0.78024239  0.98066259    -0.03850
C677        C  0.00697690  0.75009829  0.99921153     0.04760
C678        C  0.00895675  0.72084257  0.98013302     0.02850
H679        H  0.00190381  0.80807299  0.98741288     0.07960
H680        H  0.01025007  0.69241251  0.98639996     0.06790
C681        C  0.00092781  0.53737127  0.78576127    -0.06430
C682        C  0.50195454  0.57130603  0.77003754    -0.17560
C683        C  0.50218949  0.60490233  0.78451704     0.10770
C684        C  0.99813245  0.60562829  0.81597621    -0.06350
C685        C  0.99389802  0.57232500  0.83176854    -0.17590
C686        C  0.99386670  0.53852410  0.81756557     0.10800
S687        S  0.51153213  0.64536094  0.76136893    -0.32550
S688        S  0.98069384  0.50053536  0.84282330    -0.32560
H689        H  0.95134412  0.98546766  0.82619269     0.28810
H690        H  0.53526285  0.66345564  0.78192143     0.28810
H691        H  0.50538136  0.57180592  0.74586526     0.19400
H692        H  0.98874823  0.57248381  0.85573469     0.19400
C693        C  0.99835136  0.96554172  0.78395333    -0.06430
C694        C  0.96901452  0.93860478  0.77882303    -0.17560
C695        C  0.96335601  0.90631064  0.79578243     0.10770
C696        C  0.98881059  0.89816019  0.81726141    -0.06350
C697        C  0.51976051  0.92230514  0.82073007    -0.17590
C698        C  0.52541441  0.95514652  0.80419860     0.10800
S699        S  0.92202130  0.87759374  0.78969527    -0.32550
S700        S  0.56642067  0.98370209  0.81178779    -0.32560
H701        H  0.58541319  0.95683997  0.82558258     0.28810
H702        H  0.91606024  0.86801981  0.82010482     0.28810
H703        H  0.94950565  0.94193992  0.76158918     0.19400
H704        H  0.53969655  0.91536479  0.83679782     0.19400
C705        C  0.50711910  0.89918253  0.21298968    -0.06430
C706        C  0.49508758  0.89546688  0.24276411    -0.17560
C707        C  0.49349627  0.92555515  0.26157759     0.10770
C708        C  0.50149570  0.96219338  0.25015738    -0.06350
C709        C  0.01427298  0.96544330  0.21999822    -0.17590
C710        C  0.01797604  0.93480046  0.20180011     0.10800
S711        S  0.48126800  0.91481900  0.30016378    -0.32550
S712        S  0.04021153  0.94181012  0.16564887    -0.32560
H713        H  0.04576413  0.98027515  0.16622167     0.28810
H714        H  0.46208845  0.88044151  0.29539765     0.28810
H715        H  0.48738018  0.86836312  0.25183504     0.19400
H716        H  0.02383425  0.99199222  0.21088516     0.19400
C717        C  0.50480020  0.53390150  0.25136207    -0.06430
C718        C  0.97719458  0.53622235  0.22977478    -0.17560
C719        C  0.97383479  0.56745899  0.21213261     0.10770
C720        C  0.49863308  0.59848131  0.21529859    -0.06350
C721        C  0.52643744  0.59710605  0.23583557    -0.17590
C722        C  0.53036438  0.56617037  0.25385933     0.10800
S723        S  0.93619855  0.56628296  0.18694868    -0.32550
S724        S  0.56927421  0.57428262  0.27795351    -0.32560
H725        H  0.55578885  0.55832054  0.30474963     0.28810
H726        H  0.92950672  0.60298596  0.19114630     0.28810
H727        H  0.95728861  0.51310017  0.22674097     0.19400
H728        H  0.54571359  0.62104670  0.23787235     0.19400
C729        C  0.89490138  0.99674932  0.31652213    -0.06430
C730        C  0.92248050  0.52385688  0.32315874    -0.17560
C731        C  0.95597010  0.52621649  0.30811336     0.10770
C732        C  0.96366165  0.99856924  0.28713203    -0.06350
C733        C  0.93341294  0.97494999  0.27790358    -0.17590
C734        C  0.90016156  0.97273566  0.29286316     0.10800
S735        S  0.98790563  0.56435265  0.31746735    -0.32550
S736        S  0.86646300  0.93721918  0.28133120    -0.32560
H737        H  0.85558113  0.92661063  0.31071870     0.28810
H738        H  0.96759843  0.58007236  0.33982731     0.28810
H739        H  0.91743315  0.54359848  0.34020433     0.19400
H740        H  0.93509876  0.95715988  0.25894830     0.19400
C741        C  0.60214778  0.98940500  0.32099596    -0.06430
C742        C  0.56929048  0.98504474  0.33694086    -0.17560
C743        C  0.53575713  0.98671253  0.32301147     0.10770
C744        C  0.53466973  0.99309612  0.29115305    -0.06350
C745        C  0.56796032  0.49322483  0.27534370    -0.17590
C746        C  0.60110526  0.49387529  0.28957032     0.10800
S747        S  0.49688462  0.97921057  0.34790394    -0.32550
S748        S  0.64016397  0.50650826  0.26607187    -0.32560
H749        H  0.65549303  0.53275620  0.28617792     0.28810
H750        H  0.51297731  0.95947430  0.37051504     0.28810
H751        H  0.56979757  0.98054233  0.36092514     0.19400
H752        H  0.56868587  0.49738012  0.25128011     0.19400
C753        C  0.53871651  0.00119511  0.74748890    -0.06430
C754        C  0.54062754  0.96924979  0.72985287    -0.17560
C755        C  0.57184212  0.96164204  0.71421956     0.10770
C756        C  0.60307438  0.48627579  0.71546361    -0.06350
C757        C  0.60230783  0.51787278  0.73238122    -0.17590
C758        C  0.57156230  0.52589550  0.74856607     0.10800
S759        S  0.57025553  0.91946864  0.69365296    -0.32550
S760        S  0.58043863  0.56782293  0.76941548    -0.32560
H761        H  0.56819840  0.55464880  0.79759492     0.28810
H762        H  0.60658701  0.91342564  0.69800798     0.28810
H763        H  0.51707552  0.94965072  0.72817598     0.19400
H764        H  0.62657660  0.53673491  0.73310425     0.19400
C765        C  0.90046930  0.50643364  0.71412508    -0.06430
C766        C  0.93336169  0.00652215  0.69822855    -0.17560
C767        C  0.96705066  0.00883977  0.71277883     0.10770
C768        C  0.96805528  0.00538650  0.74483060    -0.06350
C769        C  0.93467767  0.50768899  0.76007900    -0.17590
C770        C  0.90213459  0.51031141  0.74550348     0.10800
S771        S  0.00621233  0.02278768  0.68944864    -0.32550
S772        S  0.86528501  0.52280867  0.76860480    -0.32560
H773        H  0.85303329  0.54693473  0.74707418     0.28810
H774        H  0.99084939  0.01358631  0.66154284     0.28810
H775        H  0.93291123  0.00647381  0.67402164     0.19400
H776        H  0.93396004  0.50886949  0.78416839     0.19400
loop_ 
_geom_bond_atom_site_label_1 
_geom_bond_atom_site_label_2 
_geom_bond_distance 
_geom_bond_site_symmetry_2 
_ccdc_geom_bond_type 
N1            N2   1.322       .  A
N1            C5   1.346       .  A
N1         Cu203   2.070       .  S
N2            C3   1.346       .  A
N2           Cu8   2.086       .  S
C3            C4   1.386       .  A
C3            H6   1.082       .  S
C4            C5   1.382       .  A
C4          C174   1.479       .  S
C5            H7   1.082       .  S
Cu8          N11   2.086       .  S
Cu9          N19   2.071       .  S
Cu9         N195   2.070       .  S
Cu10         N18   2.077       .  S
Cu10        N206   2.076       .  S
N11          N12   1.320   1_565  A
N11          C15   1.343       .  A
N12          C13   1.347       .  A
N12        Cu204   2.076       .  S
C13          C14   1.392       .  A
C13          H16   1.081       .  S
C14          C15   1.393   1_545  A
C14         C183   1.501       .  S
C15          H17   1.079       .  S
N18          N19   1.323       .  A
N18          C22   1.345       .  A
N19          C20   1.344       .  A
C20          C21   1.382       .  A
C20          H23   1.082       .  S
C21          C22   1.383       .  A
C21          C45   1.470       .  S
C22          H24   1.081       .  S
N25          N26   1.320       .  A
N25          C29   1.344       .  A
N25         Cu33   2.072       .  S
N26          C27   1.342       .  A
N26         Cu32   2.053       .  S
C27          C28   1.381       .  A
C27          H30   1.081       .  S
C28          C29   1.385       .  A
C28         C147   1.476       .  S
C29          H31   1.082       .  S
Cu32         N35   2.052       .  S
Cu33         N43   2.073       .  S
Cu34         N36   2.075       .  S
Cu34         N42   2.076       .  S
N35          N36   1.318       .  A
N35          C39   1.340       .  A
N36          C37   1.344       .  A
C37          C38   1.392       .  A
C37          H40   1.081       .  S
C38          C39   1.386       .  A
C38         C159   1.491       .  S
C39          H41   1.079       .  S
N42          N43   1.323       .  A
N42          C46   1.345       .  A
N43          C44   1.345       .  A
C44          C45   1.382       .  A
C44          H47   1.082       .  S
C45          C46   1.383       .  A
C46          H48   1.082       .  S
C49         C126   1.590       .  S
C49         C162   1.565       .  S
C49         C329   1.585       .  S
C49         C538   1.576   1_455  S
C50         C111   1.577       .  S
C50         C186   1.590       .  S
C50         C293   1.567       .  S
C50         C559   1.580       .  S
N51          N52   1.322   1_655  A
N51          C55   1.347       .  A
N51         Cu59   2.077       .  S
N52          C53   1.345       .  A
N52         Cu58   2.083       .  S
C53          C54   1.385   1_455  A
C53          H56   1.082       .  S
C54          C55   1.385       .  A
C54         C138   1.483       .  S
C55          H57   1.082       .  S
Cu58         N61   2.083       .  S
Cu59         N69   2.077   1_655  S
Cu60         N62   2.074       .  S
Cu60         N68   2.074       .  S
N61          N62   1.320       .  A
N61          C65   1.344       .  A
N62          C63   1.347       .  A
C63          C64   1.390       .  A
C63          H66   1.080   1_455  S
C64          C65   1.393       .  A
C64         C123   1.498       .  S
C65          H67   1.082       .  S
N68          N69   1.323       .  A
N68          C72   1.344       .  A
N69          C70   1.346       .  A
C70          C71   1.384       .  A
C70          H73   1.082       .  S
C71          C72   1.382       .  A
C71         C483   1.471   1_554  S
C72          H74   1.082       .  S
N75          N76   1.321       .  A
N75          C79   1.344       .  A
N75         Cu83   2.073       .  S
N76          C77   1.343       .  A
N76         Cu82   2.058       .  S
C77          C78   1.381       .  A
C77          H80   1.082       .  S
C78          C79   1.385       .  A
C78         C114   1.476       .  S
C79          H81   1.082       .  S
Cu82         N85   2.058       .  S
Cu83         N93   2.073       .  S
Cu84         N86   2.075       .  S
Cu84         N92   2.075       .  S
N85          N86   1.320       .  A
N85          C89   1.343       .  A
N86          C87   1.343       .  A
C87          C88   1.389       .  A
C87          H90   1.082       .  S
C88          C89   1.385       .  A
C88         C102   1.486       .  S
C89          H91   1.080       .  S
N92          N93   1.322       .  A
N92          C96   1.346       .  A
N93          C94   1.344       .  A
C94          C95   1.383       .  A
C94          H97   1.082       .  S
C95          C96   1.384       .  A
C95         C459   1.471   1_556  S
C96          H98   1.082       .  S
C99         C104   1.441       .  A
C99         C488   1.418       .  A
C99         C244   1.567       .  S
C100        C101   1.397       .  A
C100        C487   1.418       .  A
C100        H109   1.084       .  S
C101        C490   1.410   1_455  A
C101        S105   1.801       .  S
C102        C103   1.398       .  A
C102        C489   1.410       .  A
C103        C104   1.398       .  A
C103        H110   1.084       .  S
C104        S106   1.808       .  S
S105        H108   1.407       .  S
S106        H301   1.400   1_545  S
H107        S300   1.400       .  S
C111        C112   1.422       .  A
C111        C504   1.436       .  A
C112        C113   1.395       .  A
C112        H121   1.077       .  S
C113        C114   1.405       .  A
C113        S117   1.803       .  S
C114        C503   1.395       .  A
C115        C116   1.402       .  A
C115        C502   1.395   1_455  A
C115        H122   1.083       .  S
C116        C499   1.436   1_455  A
C116        S118   1.803       .  S
S117        H120   1.407       .  S
S118        H119   1.407       .  S
C123        C124   1.397   1_455  A
C123        C516   1.413       .  A
C124        C125   1.399       .  A
C124        H133   1.080       .  S
C125        C126   1.434   1_655  A
C125        S129   1.804       .  S
C126        C515   1.421       .  A
C127        C128   1.410       .  A
C127        C514   1.421       .  A
C127        H134   1.077       .  S
C128        C511   1.413       .  A
C128        S130   1.808       .  S
S129        H132   1.407       .  S
S130        H131   1.406       .  S
C135        C140   1.451       .  A
C135        C524   1.424   1_455  A
C135        C243   1.585   1_545  S
C136        C137   1.399       .  A
C136        C523   1.424       .  A
C136        H145   1.082       .  S
C137        C526   1.403       .  A
C137        S141   1.803       .  S
C138        C139   1.394   1_655  A
C138        C525   1.403       .  A
C139        C140   1.403       .  A
C139        H146   1.084       .  S
C140        S142   1.817       .  S
S141        H144   1.406       .  S
S142        H143   1.391       .  S
C147        C152   1.406       .  A
C147        C342   1.395       .  A
C148        C149   1.403       .  A
C148        C341   1.395   1_545  A
C148        H157   1.083       .  S
C149        C344   1.434   1_545  A
C149        S153   1.802       .  S
C150        C151   1.420       .  A
C150        C343   1.434       .  A
C150        C437   1.576       .  S
C151        C152   1.394       .  A
C151        H158   1.078       .  S
C152        S154   1.802       .  S
S153        H156   1.406       .  S
S154        H155   1.407       .  S
C159        C160   1.402       .  A
C159        C358   1.411       .  A
C160        C161   1.407       .  A
C160        H169   1.081       .  S
C161        C162   1.439       .  A
C161        S165   1.811   1_455  S
C162        C357   1.417       .  A
C163        C164   1.392       .  A
C163        C356   1.417       .  A
C163        H170   1.082       .  S
C164        C353   1.411       .  A
C164        S166   1.802   1_565  S
S165        H168   1.407   1_655  S
S166        H167   1.408       .  S
C171        C172   1.425       .  A
C171        C370   1.450       .  A
C171        C438   1.580       .  S
C172        C173   1.400       .  A
C172        H181   1.082       .  S
C173        C368   1.403       .  A
C173        S177   1.803       .  S
C174        C175   1.392   1_565  A
C174        C367   1.403       .  A
C175        C176   1.402       .  A
C175        H182   1.084       .  S
C176        C365   1.450       .  A
C176        S178   1.811       .  S
S177        H180   1.406       .  S
S178        H179   1.397       .  S
C183        C188   1.410       .  A
C183        C378   1.408       .  A
C184        C185   1.414       .  A
C184        C377   1.408       .  A
C184        H193   1.080       .  S
C185        C186   1.435       .  A
C185        S189   1.810       .  S
C186        C381   1.420       .  A
C187        C188   1.392       .  A
C187        C380   1.420       .  A
C187        H194   1.076       .  S
C188        S190   1.803       .  S
S189        H192   1.406       .  S
S190        H191   1.408       .  S
N195        N196   1.322       .  A
N195        C199   1.346       .  A
N196        C197   1.346       .  A
N196       Cu202   2.086       .  S
C197        C198   1.386       .  A
C197        H200   1.082       .  S
C198        C199   1.382       .  A
C198        C368   1.479       .  S
C199        H201   1.082       .  S
Cu202       N205   2.086       .  S
Cu203       N213   2.071       .  S
Cu204       N212   2.077   1_545  S
N205        N206   1.320       .  A
N205        C209   1.343       .  A
N206        C207   1.347       .  A
C207        C208   1.392       .  A
C207        H210   1.081       .  S
C208        C209   1.393       .  A
C208        C377   1.501       .  S
C209        H211   1.079       .  S
N212        N213   1.323       .  A
N212        C216   1.345   1_565  A
N213        C214   1.344       .  A
C214        C215   1.382       .  A
C214        H217   1.082       .  S
C215        C216   1.383   1_565  A
C215        C239   1.470       .  S
C216        H218   1.081       .  S
N219        N220   1.320       .  A
N219        C223   1.344       .  A
N219       Cu227   2.072       .  S
N220        C221   1.342       .  A
N220       Cu226   2.053       .  S
C221        C222   1.381       .  A
C221        H224   1.081       .  S
C222        C223   1.385       .  A
C222        C341   1.476       .  S
C223        H225   1.082   1_565  S
Cu226       N229   2.052       .  S
Cu227       N237   2.073       .  S
Cu228       N230   2.075   1_545  S
Cu228       N236   2.076       .  S
N229        N230   1.318       .  A
N229        C233   1.340       .  A
N230        C231   1.344       .  A
C231        C232   1.392       .  A
C231        H234   1.081   1_565  S
C232        C233   1.386       .  A
C232        C353   1.491       .  S
C233        H235   1.079       .  S
N236        N237   1.323   1_545  A
N236        C240   1.345   1_545  A
N237        C238   1.345       .  A
C238        C239   1.382       .  A
C238        H241   1.082       .  S
C239        C240   1.383       .  A
C240        H242   1.082       .  S
C243        C320   1.590       .  S
C243        C732   1.576   1_455  S
C243        C356   1.565       .  S
C244        C305   1.577   1_545  S
C244        C753   1.580       .  S
C244        C380   1.590       .  S
N245        N246   1.322   1_655  A
N245        C249   1.347       .  A
N245       Cu253   2.077       .  S
N246        C247   1.345       .  A
N246       Cu252   2.083       .  S
C247        C248   1.385   1_455  A
C247        H250   1.082       .  S
C248        C249   1.385       .  A
C248        C332   1.483       .  S
C249        H251   1.082       .  S
Cu252       N255   2.083       .  S
Cu253       N263   2.077   1_655  S
Cu254       N256   2.074       .  S
Cu254       N262   2.075       .  S
N255        N256   1.320       .  A
N255        C259   1.344       .  A
N256        C257   1.347       .  A
C257        C258   1.390       .  A
C257        H260   1.080   1_455  S
C258        C259   1.393       .  A
C258        C317   1.498       .  S
C259        H261   1.082       .  S
N262        N263   1.323       .  A
N262        C266   1.344       .  A
N263        C264   1.346       .  A
C264        C265   1.384       .  A
C264        H267   1.082       .  S
C265        C266   1.382       .  A
C265        C677   1.471   1_554  S
C266        H268   1.082       .  S
N269        N270   1.321       .  A
N269        C273   1.344       .  A
N269       Cu277   2.073       .  S
N270        C271   1.343       .  A
N270       Cu276   2.058       .  S
C271        C272   1.381       .  A
C271        H274   1.082       .  S
C272        C273   1.385       .  A
C272        C308   1.476       .  S
C273        H275   1.082       .  S
Cu276       N279   2.058       .  S
Cu277       N287   2.073       .  S
Cu278       N280   2.075       .  S
Cu278       N286   2.075       .  S
N279        N280   1.320       .  A
N279        C283   1.343       .  A
N280        C281   1.343       .  A
C281        C282   1.389       .  A
C281        H284   1.082       .  S
C282        C283   1.385       .  A
C282        C296   1.486       .  S
C283        H285   1.080       .  S
N286        N287   1.322       .  A
N286        C290   1.346       .  A
N287        C288   1.344       .  A
C288        C289   1.383       .  A
C288        H291   1.082       .  S
C289        C290   1.384       .  A
C289        C653   1.471   1_556  S
C290        H292   1.082       .  S
C293        C682   1.418       .  A
C293        C298   1.441       .  A
C294        C681   1.418       .  A
C294        C295   1.397       .  A
C294        H303   1.084       .  S
C295        C684   1.410   1_455  A
C295        S299   1.801       .  S
C296        C683   1.410       .  A
C296        C297   1.398       .  A
C297        C298   1.398       .  A
C297        H304   1.084       .  S
C298        S300   1.808       .  S
S299        H302   1.407       .  S
C305        C306   1.422       .  A
C305        C698   1.436       .  A
C306        C307   1.395       .  A
C306        H315   1.077       .  S
C307        C308   1.405       .  A
C307        S311   1.803       .  S
C308        C697   1.395       .  A
C309        C696   1.395   1_455  A
C309        C310   1.402       .  A
C309        H316   1.083       .  S
C310        C693   1.436   1_455  A
C310        S312   1.803       .  S
S311        H314   1.407       .  S
S312        H313   1.407       .  S
C317        C318   1.397   1_455  A
C317        C710   1.413       .  A
C318        C319   1.399       .  A
C318        H327   1.080       .  S
C319        C320   1.434   1_655  A
C319        S323   1.804       .  S
C320        C709   1.421       .  A
C321        C708   1.421       .  A
C321        C322   1.410       .  A
C321        H328   1.077       .  S
C322        C705   1.413       .  A
C322        S324   1.808       .  S
S323        H326   1.407       .  S
S324        H325   1.406       .  S
C329        C718   1.424   1_455  A
C329        C334   1.451       .  A
C330        C717   1.424       .  A
C330        C331   1.399       .  A
C330        H339   1.082       .  S
C331        C720   1.403       .  A
C331        S335   1.803       .  S
C332        C719   1.403       .  A
C332        C333   1.394   1_655  A
C333        C334   1.403       .  A
C333        H340   1.084       .  S
C334        S336   1.817       .  S
S335        H338   1.406       .  S
S336        H337   1.391       .  S
C341        C346   1.406       .  A
C342        C343   1.403       .  A
C342        H351   1.083       .  S
C343        S347   1.802       .  S
C344        C345   1.420       .  A
C344        C631   1.576       .  S
C345        C346   1.394       .  A
C345        H352   1.078       .  S
C346        S348   1.802       .  S
S347        H350   1.406       .  S
S348        H349   1.407       .  S
C353        C354   1.402       .  A
C354        C355   1.407       .  A
C354        H363   1.081       .  S
C355        C356   1.439       .  A
C355        S359   1.811   1_455  S
C357        C358   1.392       .  A
C357        H364   1.082       .  S
C358        S360   1.802       .  S
S359        H362   1.407   1_655  S
S360        H361   1.408       .  S
C365        C366   1.425   1_545  A
C365        C632   1.580       .  S
C366        C367   1.400       .  A
C366        H375   1.082       .  S
C367        S371   1.803       .  S
C368        C369   1.392       .  A
C369        C370   1.402       .  A
C369        H376   1.084       .  S
C370        S372   1.811       .  S
S371        H374   1.406       .  S
S372        H373   1.397       .  S
C377        C382   1.410       .  A
C378        C379   1.414       .  A
C378        H387   1.080       .  S
C379        C380   1.435       .  A
C379        S383   1.810       .  S
C381        C382   1.392       .  A
C381        H388   1.076       .  S
C382        S384   1.803       .  S
S383        H386   1.406       .  S
S384        H385   1.408       .  S
N389        N390   1.322       .  A
N389        C393   1.346       .  A
N389       Cu591   2.070       .  S
N390        C391   1.346       .  A
N390       Cu396   2.086       .  S
C391        C392   1.386       .  A
C391        H394   1.082       .  S
C392        C393   1.382       .  A
C392        C562   1.479       .  S
C393        H395   1.082       .  S
Cu396       N399   2.086       .  S
Cu397       N583   2.070       .  S
Cu397       N407   2.071       .  S
Cu398       N594   2.076       .  S
Cu398       N406   2.077       .  S
N399        N400   1.320   1_565  A
N399        C403   1.343       .  A
N400        C401   1.347       .  A
N400       Cu592   2.076       .  S
C401        C402   1.392       .  A
C401        H404   1.081       .  S
C402        C403   1.393   1_545  A
C402        C571   1.501       .  S
C403        H405   1.079       .  S
N406        N407   1.323       .  A
N406        C410   1.345       .  A
N407        C408   1.344       .  A
C408        C409   1.382       .  A
C408        H411   1.082       .  S
C409        C410   1.383       .  A
C409        C433   1.470       .  S
C410        H412   1.081       .  S
N413        N414   1.320       .  A
N413        C417   1.344       .  A
N413       Cu421   2.072       .  S
N414        C415   1.342       .  A
N414       Cu420   2.053       .  S
C415        C416   1.381       .  A
C415        H418   1.081       .  S
C416        C417   1.385       .  A
C416        C535   1.476       .  S
C417        H419   1.082       .  S
Cu420       N423   2.052       .  S
Cu421       N431   2.073       .  S
Cu422       N424   2.075       .  S
Cu422       N430   2.076       .  S
N423        N424   1.318       .  A
N423        C427   1.340       .  A
N424        C425   1.344       .  A
C425        C426   1.392       .  A
C425        H428   1.081       .  S
C426        C427   1.386       .  A
C426        C547   1.491       .  S
C427        H429   1.079       .  S
N430        N431   1.323       .  A
N430        C434   1.345       .  A
N431        C432   1.345       .  A
C432        C433   1.382       .  A
C432        H435   1.082       .  S
C433        C434   1.383       .  A
C434        H436   1.082       .  S
C437        C514   1.590       .  S
C437        C717   1.585       .  S
C437        C550   1.565       .  S
C438        C681   1.567       .  S
C438        C499   1.577   1_455  S
C438        C574   1.590   1_455  S
N439        N440   1.322       .  A
N439        C443   1.347       .  A
N439       Cu447   2.077       .  S
N440        C441   1.345       .  A
N440       Cu446   2.083       .  S
C441        C442   1.385       .  A
C441        H444   1.082       .  S
C442        C443   1.385       .  A
C442        C526   1.483       .  S
C443        H445   1.082       .  S
Cu446       N449   2.083       .  S
Cu447       N457   2.077       .  S
Cu448       N450   2.074       .  S
Cu448       N456   2.074       .  S
N449        N450   1.320       .  A
N449        C453   1.344       .  A
N450        C451   1.347       .  A
C451        C452   1.390       .  A
C451        H454   1.080       .  S
C452        C453   1.393       .  A
C452        C511   1.498       .  S
C453        H455   1.082       .  S
N456        N457   1.323       .  A
N456        C460   1.344       .  A
N457        C458   1.346       .  A
C458        C459   1.384       .  A
C458        H461   1.082       .  S
C459        C460   1.382       .  A
C460        H462   1.082       .  S
N463        N464   1.321       .  A
N463        C467   1.344       .  A
N463       Cu471   2.073       .  S
N464        C465   1.343       .  A
N464       Cu470   2.058       .  S
C465        C466   1.381       .  A
C465        H468   1.082       .  S
C466        C467   1.385       .  A
C466        C502   1.476       .  S
C467        H469   1.082   1_655  S
Cu470       N473   2.058       .  S
Cu471       N481   2.073   1_655  S
Cu472       N474   2.075   1_455  S
Cu472       N480   2.075       .  S
N473        N474   1.320       .  A
N473        C477   1.343       .  A
N474        C475   1.343   1_655  A
C475        C476   1.389   1_455  A
C475        H478   1.082       .  S
C476        C477   1.385       .  A
C476        C490   1.486       .  S
C477        H479   1.080       .  S
N480        N481   1.322       .  A
N480        C484   1.346       .  A
N481        C482   1.344       .  A
C482        C483   1.383       .  A
C482        H485   1.082       .  S
C483        C484   1.384       .  A
C484        H486   1.082       .  S
C487        C492   1.441   1_455  A
C487        C632   1.567       .  S
C488        C489   1.397       .  A
C488        H497   1.084       .  S
C489        S493   1.801       .  S
C490        C491   1.398       .  A
C491        C492   1.398       .  A
C491        H498   1.084       .  S
C492        S494   1.808       .  S
S493        H496   1.407       .  S
S494        H689   1.400   1_545  S
H495        S688   1.400       .  S
C499        C500   1.422       .  A
C500        C501   1.395       .  A
C500        H509   1.077       .  S
C501        C502   1.405       .  A
C501        S505   1.803       .  S
C503        C504   1.402       .  A
C503        H510   1.083       .  S
C504        S506   1.803       .  S
S505        H508   1.407       .  S
S506        H507   1.407       .  S
C511        C512   1.397       .  A
C512        C513   1.399       .  A
C512        H521   1.080       .  S
C513        C514   1.434       .  A
C513        S517   1.804       .  S
C515        C516   1.410       .  A
C515        H522   1.077       .  S
C516        S518   1.808       .  S
S517        H520   1.407       .  S
S518        H519   1.406       .  S
C523        C528   1.451       .  A
C523        C631   1.585   1_545  S
C524        C525   1.399       .  A
C524        H533   1.082       .  S
C525        S529   1.803       .  S
C526        C527   1.394       .  A
C527        C528   1.403       .  A
C527        H534   1.084       .  S
C528        S530   1.817       .  S
S529        H532   1.406       .  S
S530        H531   1.391       .  S
C535        C730   1.395       .  A
C535        C540   1.406       .  A
C536        C729   1.395   1_545  A
C536        C537   1.403       .  A
C536        H545   1.083       .  S
C537        C732   1.434   1_545  A
C537        S541   1.802       .  S
C538        C731   1.434       .  A
C538        C539   1.420       .  A
C539        C540   1.394       .  A
C539        H546   1.078       .  S
C540        S542   1.802       .  S
S541        H544   1.406       .  S
S542        H543   1.407       .  S
C547        C548   1.402       .  A
C547        C746   1.411       .  A
C548        C549   1.407       .  A
C548        H557   1.081       .  S
C549        C550   1.439       .  A
C549        S553   1.811       .  S
C550        C745   1.417       .  A
C551        C744   1.417       .  A
C551        C552   1.392       .  A
C551        H558   1.082       .  S
C552        C741   1.411       .  A
C552        S554   1.802   1_565  S
S553        H556   1.407       .  S
S554        H555   1.408       .  S
C559        C560   1.425       .  A
C559        C758   1.450       .  A
C560        C561   1.400       .  A
C560        H569   1.082       .  S
C561        C756   1.403       .  A
C561        S565   1.803       .  S
C562        C755   1.403       .  A
C562        C563   1.392   1_565  A
C563        C564   1.402       .  A
C563        H570   1.084       .  S
C564        C753   1.450       .  A
C564        S566   1.811       .  S
S565        H568   1.406       .  S
S566        H567   1.397       .  S
C571        C766   1.408       .  A
C571        C576   1.410       .  A
C572        C765   1.408       .  A
C572        C573   1.414       .  A
C572        H581   1.080       .  S
C573        C574   1.435       .  A
C573        S577   1.810   1_655  S
C574        C769   1.420       .  A
C575        C768   1.420       .  A
C575        C576   1.392       .  A
C575        H582   1.076       .  S
C576        S578   1.803       .  S
S577        H580   1.406   1_455  S
S578        H579   1.408       .  S
N583        N584   1.322       .  A
N583        C587   1.346       .  A
N584        C585   1.346       .  A
N584       Cu590   2.086       .  S
C585        C586   1.386       .  A
C585        H588   1.082       .  S
C586        C587   1.382       .  A
C586        C756   1.479       .  S
C587        H589   1.082       .  S
Cu590       N593   2.086       .  S
Cu591       N601   2.071       .  S
Cu592       N600   2.077   1_545  S
N593        N594   1.320       .  A
N593        C597   1.343       .  A
N594        C595   1.347       .  A
C595        C596   1.392       .  A
C595        H598   1.081       .  S
C596        C597   1.393       .  A
C596        C765   1.501       .  S
C597        H599   1.079       .  S
N600        N601   1.323       .  A
N600        C604   1.345   1_565  A
N601        C602   1.344       .  A
C602        C603   1.382       .  A
C602        H605   1.082       .  S
C603        C604   1.383   1_565  A
C603        C627   1.470       .  S
C604        H606   1.081       .  S
N607        N608   1.320       .  A
N607        C611   1.344       .  A
N607       Cu615   2.072       .  S
N608        C609   1.342       .  A
N608       Cu614   2.053       .  S
C609        C610   1.381       .  A
C609        H612   1.081       .  S
C610        C611   1.385       .  A
C610        C729   1.476       .  S
C611        H613   1.082   1_565  S
Cu614       N617   2.052       .  S
Cu615       N625   2.073       .  S
Cu616       N618   2.075   1_545  S
Cu616       N624   2.076       .  S
N617        N618   1.318       .  A
N617        C621   1.340       .  A
N618        C619   1.344       .  A
C619        C620   1.392       .  A
C619        H622   1.081   1_565  S
C620        C621   1.386       .  A
C620        C741   1.491       .  S
C621        H623   1.079       .  S
N624        N625   1.323   1_545  A
N624        C628   1.345   1_545  A
N625        C626   1.345       .  A
C626        C627   1.382       .  A
C626        H629   1.082       .  S
C627        C628   1.383       .  A
C628        H630   1.082       .  S
C631        C708   1.590       .  S
C631        C744   1.565       .  S
C632        C693   1.577   1_445  S
C632        C768   1.590   1_455  S
N633        N634   1.322       .  A
N633        C637   1.347       .  A
N633       Cu641   2.077       .  S
N634        C635   1.345       .  A
N634       Cu640   2.083       .  S
C635        C636   1.385       .  A
C635        H638   1.082       .  S
C636        C637   1.385       .  A
C636        C720   1.483       .  S
C637        H639   1.082       .  S
Cu640       N643   2.083       .  S
Cu641       N651   2.077       .  S
Cu642       N644   2.074       .  S
Cu642       N650   2.075       .  S
N643        N644   1.320       .  A
N643        C647   1.344       .  A
N644        C645   1.347       .  A
C645        C646   1.390       .  A
C645        H648   1.080       .  S
C646        C647   1.393       .  A
C646        C705   1.498       .  S
C647        H649   1.082       .  S
N650        N651   1.323       .  A
N650        C654   1.344       .  A
N651        C652   1.346       .  A
C652        C653   1.384       .  A
C652        H655   1.082       .  S
C653        C654   1.382       .  A
C654        H656   1.082       .  S
N657        N658   1.321       .  A
N657        C661   1.344       .  A
N657       Cu665   2.073       .  S
N658        C659   1.343       .  A
N658       Cu664   2.058       .  S
C659        C660   1.381       .  A
C659        H662   1.082       .  S
C660        C661   1.385       .  A
C660        C696   1.476       .  S
C661        H663   1.082   1_655  S
Cu664       N667   2.058       .  S
Cu665       N675   2.073   1_655  S
Cu666       N668   2.075   1_455  S
Cu666       N674   2.075       .  S
N667        N668   1.320       .  A
N667        C671   1.343       .  A
N668        C669   1.343   1_655  A
C669        C670   1.389   1_455  A
C669        H672   1.082       .  S
C670        C671   1.385       .  A
C670        C684   1.486       .  S
C671        H673   1.080       .  S
N674        N675   1.322       .  A
N674        C678   1.346       .  A
N675        C676   1.344       .  A
C676        C677   1.383       .  A
C676        H679   1.082       .  S
C677        C678   1.384       .  A
C678        H680   1.082       .  S
C681        C686   1.441   1_455  A
C682        C683   1.397       .  A
C682        H691   1.084       .  S
C683        S687   1.801       .  S
C684        C685   1.398       .  A
C685        C686   1.398       .  A
C685        H692   1.084       .  S
C686        S688   1.808       .  S
S687        H690   1.407       .  S
C693        C694   1.422       .  A
C694        C695   1.395       .  A
C694        H703   1.077       .  S
C695        C696   1.405       .  A
C695        S699   1.803       .  S
C697        C698   1.402       .  A
C697        H704   1.083       .  S
C698        S700   1.803       .  S
S699        H702   1.407       .  S
S700        H701   1.407       .  S
C705        C706   1.397       .  A
C706        C707   1.399       .  A
C706        H715   1.080       .  S
C707        C708   1.434       .  A
C707        S711   1.804       .  S
C709        C710   1.410       .  A
C709        H716   1.077       .  S
C710        S712   1.808       .  S
S711        H714   1.407       .  S
S712        H713   1.406       .  S
C717        C722   1.451       .  A
C718        C719   1.399       .  A
C718        H727   1.082       .  S
C719        S723   1.803       .  S
C720        C721   1.394       .  A
C721        C722   1.403       .  A
C721        H728   1.084       .  S
C722        S724   1.817       .  S
S723        H726   1.406       .  S
S724        H725   1.391       .  S
C729        C734   1.406       .  A
C730        C731   1.403       .  A
C730        H739   1.083       .  S
C731        S735   1.802       .  S
C732        C733   1.420       .  A
C733        C734   1.394       .  A
C733        H740   1.078       .  S
C734        S736   1.802       .  S
S735        H738   1.406       .  S
S736        H737   1.407       .  S
C741        C742   1.402       .  A
C742        C743   1.407       .  A
C742        H751   1.081       .  S
C743        C744   1.439       .  A
C743        S747   1.811       .  S
C745        C746   1.392       .  A
C745        H752   1.082       .  S
C746        S748   1.802       .  S
S747        H750   1.407       .  S
S748        H749   1.408       .  S
C753        C754   1.425   1_545  A
C754        C755   1.400       .  A
C754        H763   1.082       .  S
C755        S759   1.803       .  S
C756        C757   1.392       .  A
C757        C758   1.402       .  A
C757        H764   1.084       .  S
C758        S760   1.811       .  S
S759        H762   1.406       .  S
S760        H761   1.397       .  S
C765        C770   1.410       .  A
C766        C767   1.414       .  A
C766        H775   1.080       .  S
C767        C768   1.435       .  A
C767        S771   1.810   1_655  S
C769        C770   1.392       .  A
C769        H776   1.076       .  S
C770        S772   1.803       .  S
S771        H774   1.406   1_455  S
S772        H773   1.408       .  S
