geometry optimzed in LAMMPS
_audit_creation_date              2020-12-01 
_audit_creation_method            'lammps2cif' 
_symmetry_space_group_name_H-M    'P1' 
_symmetry_Int_Tables_number       1 
_symmetry_cell_setting            triclinic 
loop_ 
_symmetry_equiv_pos_as_xyz 
  x,y,z 
_cell_length_a                    34.36603782 
_cell_length_b                    42.558501629486074 
_cell_length_c                    25.647551224639265 
_cell_angle_alpha                 90.43029215413408 
_cell_angle_beta                  108.20325117847679 
_cell_angle_gamma                 90.47233898365542 
loop_ 
_atom_site_label 
_atom_site_type_symbol 
_atom_site_fract_x 
_atom_site_fract_y 
_atom_site_fract_z 
_atom_site_charge 
In1        In  0.19563798  0.46912060  0.77249581     1.36900
C2          C  0.23425913  0.45861962  0.69918690     0.79800
O3          O  0.25266415  0.45715393  0.83807948    -0.58600
O4          O  0.19998627  0.42830506  0.83024096    -0.49500
C5          C  0.18790678  0.01530763  0.83371593     0.72500
O6          O  0.20834232  0.01458487  0.80061245    -0.44400
C7          C  0.12169223  0.46174162  0.70058502     0.77200
O8          O  0.22106864  0.48546344  0.70561433    -0.56200
O9          O  0.13691987  0.44109681  0.73615878    -0.46300
O10         O  0.22907137  0.43801787  0.73139411    -0.52700
C11         C  0.23759556  0.43373826  0.85510183     0.87400
O12         O  0.16862418  0.49768509  0.82601198    -0.54600
O13         O  0.14336998  0.48615167  0.70441266    -0.57900
In14       In  0.31207058  0.37594151  0.55001172     1.36900
C15         C  0.31855697  0.32683713  0.61557309     0.79800
O16         O  0.32687638  0.39900857  0.63202520    -0.58600
O17         O  0.26954436  0.40969171  0.57269588    -0.49500
C18         C  0.36465026  0.41388300  0.52233027     0.72500
O19         O  0.37567296  0.38844976  0.54769902    -0.44400
C20         C  0.26906448  0.34622780  0.45772341     0.77200
O21         O  0.34869078  0.33692664  0.60173069    -0.56200
O22         O  0.25421558  0.36852899  0.47800975    -0.46300
O23         O  0.28554745  0.34137036  0.59473373    -0.52700
C24         C  0.29317664  0.41300709  0.62149690     0.87400
O25         O  0.32682655  0.41911770  0.50963280    -0.54600
O26         O  0.30607190  0.34049525  0.48316027    -0.57900
In27       In  0.29941948  0.00918350  0.28585657     1.36900
C28         C  0.25076266  0.01506891  0.34768195     0.79800
O29         O  0.34633554  0.48371539  0.34209554    -0.58600
O30         O  0.35989563  0.02951234  0.33756009    -0.49500
C31         C  0.29945823  0.46345660  0.21791763     0.72500
O32         O  0.27697296  0.46437350  0.24841220    -0.44400
C33         C  0.27159717  0.05515630  0.21326457     0.77200
O34         O  0.24190843  0.50058653  0.30449107    -0.56200
O35         O  0.30924574  0.05194363  0.23851522    -0.46300
O36         O  0.28394467  0.03022706  0.35681110    -0.52700
C37         C  0.37103438  0.50654375  0.35759649     0.87400
O38         O  0.32151765  0.48755847  0.22011341    -0.54600
O39         O  0.24874050  0.03560810  0.22641868    -0.57900
In40       In  0.16517268  0.09229113  0.48798626     1.36900
C41         C  0.16376037  0.13626960  0.41354944     0.79800
O42         O  0.15821932  0.13023008  0.54575976    -0.58600
O43         O  0.21327982  0.10454332  0.56893412    -0.49500
C44         C  0.10020284  0.05879356  0.49253177     0.72500
O45         O  0.09791616  0.08057838  0.45885681    -0.44400
C46         C  0.20863528  0.05068497  0.45351691     0.77200
O47         O  0.13266332  0.12905148  0.42710964    -0.56200
O48         O  0.22167244  0.06367067  0.50021124    -0.46300
O49         O  0.19539007  0.12117258  0.43808939    -0.52700
C50         C  0.19318505  0.12683007  0.57996397     0.87400
O51         O  0.13586130  0.05413519  0.52460556    -0.54600
O52         O  0.17202438  0.05684903  0.42657952    -0.57900
C53         C  0.03006654  0.99544405  0.52570498     0.04500
C54         C  0.03329191  0.47719031  0.56803180     0.04500
C55         C  0.00031977  0.45704036  0.56645931    -0.16000
C56         C  0.46479698  0.45532837  0.52044710     0.04500
C57         C  0.46143158  0.47604756  0.47616714     0.04500
C58         C  0.49562612  0.99397333  0.48778615    -0.16000
H59         H  0.49436088  0.00834161  0.45271534     0.06500
H60         H  0.00166102  0.44278350  0.60174368     0.06500
In61       In  0.29009581  0.21930891  0.77651052     1.36900
C62         C  0.24333133  0.20318115  0.83668337     0.79800
O63         O  0.24132531  0.19540981  0.70910056    -0.58600
O64         O  0.30087308  0.17584929  0.73160925    -0.49500
C65         C  0.29259457  0.26855942  0.71397490     0.72500
O66         O  0.26588954  0.26534062  0.73801491    -0.44400
C67         C  0.35437555  0.22754257  0.86492775     0.77200
O68         O  0.23532788  0.22675219  0.80540801    -0.56200
O69         O  0.35557201  0.20933609  0.82617462    -0.46300
O70         O  0.27445086  0.18783076  0.83595899    -0.52700
C71         C  0.26409498  0.17417514  0.70084326     0.87400
O72         O  0.31896694  0.24715103  0.72348067    -0.54600
O73         O  0.32185849  0.24292990  0.85634716    -0.57900
In74       In  0.16819780  0.12513411  0.99342657     1.36900
C75         C  0.16324127  0.07422319  0.93104711     0.79800
O76         O  0.17319614  0.15517797  0.92451241    -0.58600
O77         O  0.22497537  0.15279094  0.99620282    -0.49500
C78         C  0.10498935  0.16141950  0.99190957     0.72500
O79         O  0.10478671  0.14269313  0.95366422    -0.44400
C80         C  0.19858287  0.09754704  0.09040499     0.77200
O81         O  0.13458601  0.08200052  0.94925290    -0.56200
O82         O  0.21786147  0.11912537  0.07502336    -0.46300
O83         O  0.19406341  0.09218722  0.94521082    -0.52700
C84         C  0.21009303  0.16278548  0.94784246     0.87400
O85         O  0.13729989  0.16111870  0.03246445    -0.54600
O86         O  0.16339994  0.09158592  0.05775146    -0.57900
In87       In  0.20561547  0.24232178  0.26269883     1.36900
C88         C  0.25442626  0.25881114  0.20574545     0.79800
O89         O  0.17131093  0.22580691  0.17851028    -0.58600
O90         O  0.14174143  0.25889267  0.21580722    -0.49500
C91         C  0.19679081  0.19129166  0.31722261     0.72500
O92         O  0.22596923  0.19468999  0.29754050    -0.44400
C93         C  0.23879428  0.28041066  0.34795910     0.77200
O94         O  0.24856417  0.23022031  0.21471091    -0.56200
O95         O  0.20298398  0.28495154  0.31548878    -0.46300
O96         O  0.23694221  0.27835667  0.22797985    -0.52700
C97         C  0.14051027  0.24262330  0.17367357     0.87400
O98         O  0.17126605  0.21334184  0.30688360    -0.54600
O99         O  0.25632795  0.25646518  0.33703174    -0.57900
In100      In  0.32633671  0.35254568  0.06580820     1.36900
C101        C  0.32682804  0.40474159  0.12235868     0.79800
O102        O  0.31473087  0.38260867  0.99180882    -0.58600
O103        O  0.26609772  0.35293866  0.99645059    -0.49500
C104        C  0.38987495  0.32359213  0.04994893     0.72500
O105        O  0.39363660  0.34844340  0.07812857    -0.44400
C106        C  0.30960366  0.31408313  0.13698245     0.77200
O107        O  0.35656065  0.39747513  0.10572518    -0.56200
O108        O  0.29146002  0.31158435  0.08594290    -0.46300
O109        O  0.29688326  0.38575260  0.10871951    -0.51500
C110        C  0.27787746  0.37419717  0.97060207     0.87400
O111        O  0.35345727  0.31412887  0.02834066    -0.54600
O112        O  0.33736628  0.33477627  0.15060928    -0.57900
C113        C  0.45780571  0.23780354  0.97756875     0.04500
C114        C  0.45671001  0.25779479  0.02157199     0.04500
C115        C  0.48937083  0.25684500  0.07103287    -0.16000
C116        C  0.03285874  0.24279563  0.06688418     0.04500
C117        C  0.03025006  0.22006079  0.02503604     0.04500
C118        C  0.49162970  0.21843105  0.98374503    -0.16000
H119        H  0.49077454  0.20259017  0.95021713     0.06500
H120        H  0.00428723  0.28174167  0.09206700     0.06500
C121        C  0.42563246  0.30634474  0.04537748    -0.14200
C122        C  0.42150349  0.27890700  0.01776444    -0.29400
H123        H  0.45580322  0.31555236  0.06793647     0.14800
H124        H  0.39096104  0.27148107  0.99384587     0.15400
C125        C  0.06747662  0.24527211  0.11920864    -0.14200
C126        C  0.10680949  0.24299277  0.12154595    -0.29400
H127        H  0.06025149  0.25014637  0.15680340     0.14800
H128        H  0.11476185  0.23917851  0.08426114     0.15400
C129        C  0.29700858  0.29703100  0.17866753    -0.14200
C130        C  0.27751384  0.26920536  0.16931655    -0.29400
H131        H  0.30115981  0.30922102  0.21747462     0.14800
H132        H  0.27526791  0.25563798  0.13243392     0.15400
C133        C  0.07068072  0.18290802  0.98696947    -0.14200
C134        C  0.06270945  0.19588086  0.03051991    -0.29400
H135        H  0.05253805  0.18878855  0.94552472     0.14800
H136        H  0.08137270  0.18901867  0.07125849     0.15400
C137        C  0.42541285  0.23680184  0.92334771    -0.14200
C138        C  0.38657770  0.22920439  0.91825266    -0.29400
H139        H  0.43441123  0.23987795  0.88664937     0.14800
H140        H  0.37756375  0.22459328  0.95445904     0.15400
C141        C  0.21800292  0.19358357  0.87073903    -0.14200
C142        C  0.23492369  0.17952451  0.91919566    -0.29400
H143        H  0.18507770  0.19680070  0.85481333     0.14800
H144        H  0.26805942  0.17805394  0.93615071     0.15400
C145        C  0.06641237  0.01441869  0.52353688    -0.14200
C146        C  0.06366098  0.04057523  0.49353261    -0.29400
H147        H  0.09667084  0.00676328  0.54786376     0.14800
H148        H  0.03397437  0.04912910  0.46900328     0.15400
C149        C  0.19415869  0.16433340  0.35184527    -0.14200
C150        C  0.16330693  0.16089237  0.37324047    -0.29400
H151        H  0.21925209  0.14776974  0.36214028     0.14800
H152        H  0.13765071  0.17692529  0.36204286     0.15400
C153        C  0.24881126  0.14967514  0.65795648    -0.14200
C154        C  0.20906306  0.14828826  0.62743904    -0.29400
H155        H  0.27057112  0.13342337  0.65003958     0.14800
H156        H  0.18766747  0.16498970  0.63508432     0.15400
C157        C  0.32726186  0.43285368  0.15612970    -0.14200
C158        C  0.29949404  0.43617360  0.18268435    -0.29400
H159        H  0.35133464  0.45035731  0.16080707     0.14800
H160        H  0.27653647  0.41793688  0.17961356     0.15400
C161        C  0.21544627  0.07922867  0.14096338    -0.14200
C162        C  0.25552709  0.07883526  0.17000864    -0.29400
H163        H  0.19446536  0.06303670  0.15137659     0.14800
H164        H  0.27704110  0.09423319  0.15904730     0.15400
C165        C  0.41039102  0.50416361  0.40163661    -0.14200
C166        C  0.42393232  0.47702504  0.42748160    -0.29400
H167        H  0.42743322  0.02483560  0.42240534     0.14800
H168        H  0.40583480  0.45568030  0.41466820     0.15400
C169        C  0.22239264  0.02065098  0.37927221    -0.14200
C170        C  0.23587912  0.03310683  0.42999213    -0.29400
H171        H  0.18976247  0.01794249  0.35825120     0.14800
H172        H  0.26860543  0.03468988  0.45128440     0.15400
C173        C  0.39332848  0.43674942  0.51016687    -0.14200
C174        C  0.43355495  0.43107172  0.52216604    -0.29400
H175        H  0.38136178  0.45953752  0.49467436     0.14800
H176        H  0.44502257  0.40874056  0.54078589     0.15400
C177        C  0.29183169  0.29499465  0.67671864    -0.14200
C178        C  0.32149656  0.30039263  0.65367946    -0.29400
H179        H  0.26562860  0.31048559  0.66774165     0.14800
H180        H  0.34845793  0.28568233  0.66369716     0.15400
C181        C  0.26022930  0.30099265  0.39500784    -0.14200
C182        C  0.24494172  0.32759697  0.40905602    -0.29400
H183        H  0.29069153  0.29365993  0.41926885     0.14800
H184        H  0.21433173  0.33512423  0.38592915     0.15400
C185        C  0.18694543  0.04348216  0.86649181    -0.14200
C186        C  0.16120678  0.04633658  0.89619250    -0.29400
H187        H  0.20836873  0.06240065  0.86640656     0.14800
H188        H  0.13842445  0.02820513  0.89464311     0.15400
C189        C  0.26330541  0.41499052  0.90078386    -0.14200
C190        C  0.25043922  0.38932200  0.92110865    -0.29400
H191        H  0.29457913  0.42343134  0.91935067     0.14800
H192        H  0.21920366  0.38066396  0.90353409     0.15400
C193        C  0.06900759  0.48029249  0.61887187    -0.14200
C194        C  0.08266878  0.45741163  0.65598132    -0.29400
H195        H  0.08593768  0.50238672  0.62521020     0.14800
H196        H  0.06731046  0.43473282  0.65143945     0.15400
C197        C  0.25252450  0.45090864  0.65598597    -0.14200
C198        C  0.28143438  0.42890904  0.66523686    -0.29400
H199        H  0.24011930  0.46132047  0.61572025     0.14800
H200        H  0.29525001  0.42036465  0.70671794     0.15400
In201      In  0.19341152  0.96430084  0.77724021     1.36900
C202        C  0.23448366  0.95513778  0.70723742     0.79800
O203        O  0.25165707  0.94946597  0.83720105    -0.58600
O204        O  0.19856968  0.92253115  0.83381098    -0.49500
C205        C  0.19288308  0.52064380  0.83000561     0.72500
O206        O  0.21836270  0.51739852  0.80404985    -0.44400
C207        C  0.11967674  0.96068477  0.70433429     0.77200
O208        O  0.24127372  0.97882128  0.73882034    -0.56200
O209        O  0.13261400  0.93985572  0.74036492    -0.46300
O210        O  0.20676320  0.93666914  0.71147085    -0.52700
C211        C  0.23676772  0.92658650  0.85542216     0.87400
O212        O  0.16954882  0.99000959  0.83728497    -0.54600
O213        O  0.14380909  0.98364500  0.70749413    -0.57900
In214      In  0.30255758  0.87956564  0.54232414     1.36900
C215        C  0.31328936  0.83335886  0.61539671     0.79800
O216        O  0.30180684  0.91238082  0.61082611    -0.58600
O217        O  0.24594964  0.90274116  0.54707799    -0.49500
C218        C  0.35987674  0.91768723  0.52632172     0.72500
O219        O  0.36839309  0.89253465  0.55299551    -0.44400
C220        C  0.26677667  0.84969709  0.44715836     0.77200
O221        O  0.34233849  0.84426237  0.60044464    -0.56200
O222        O  0.25222970  0.87419239  0.46119291    -0.46300
O223        O  0.27913609  0.84571984  0.59246917    -0.52700
C224        C  0.26353743  0.91617265  0.59238857     0.87400
O225        O  0.32214333  0.92300149  0.50701307    -0.54600
O226        O  0.30054448  0.84150168  0.48034333    -0.57900
In227      In  0.29854379  0.51225128  0.28197729     1.36900
C228        C  0.25187163  0.51791331  0.34673376     0.79800
O229        O  0.34639617  0.98188574  0.35017236    -0.58600
O230        O  0.35894572  0.53217006  0.33360939    -0.49500
C231        C  0.30035115  0.96082429  0.22040752     0.72500
O232        O  0.27892395  0.96099851  0.25228979    -0.44400
C233        C  0.27080559  0.55823423  0.20911317     0.77200
O234        O  0.24267000  0.99631260  0.30735071    -0.56200
O235        O  0.30829516  0.55563900  0.23578646    -0.46300
O236        O  0.28606033  0.53166777  0.35650399    -0.52700
C237        C  0.37136499  0.00464886  0.36434401     0.87400
O238        O  0.32160436  0.98532727  0.22221190    -0.54600
O239        O  0.24807268  0.53804544  0.22092696    -0.57900
In240      In  0.16626372  0.59523146  0.48724983     1.36900
C241        C  0.16212394  0.63976918  0.41226066     0.79800
O242        O  0.16005096  0.63062930  0.54960625    -0.58600
O243        O  0.21756368  0.60903946  0.56473947    -0.49500
C244        C  0.10166235  0.56048084  0.49112265     0.72500
O245        O  0.09911388  0.58264778  0.45807662    -0.44400
C246        C  0.21061572  0.55425607  0.45309142     0.77200
O247        O  0.13358127  0.63480267  0.43230130    -0.56200
O248        O  0.22353081  0.56753726  0.49957728    -0.46300
O249        O  0.19238246  0.62217060  0.43049124    -0.52700
C250        C  0.19664140  0.62918874  0.57989779     0.87400
O251        O  0.13745952  0.55596069  0.52295913    -0.54600
O252        O  0.17375947  0.55983490  0.42628195    -0.57900
C253        C  0.03131278  0.49585900  0.52178443     0.04500
C254        C  0.03152984  0.97773912  0.57279943     0.04500
C255        C  0.99829793  0.95798847  0.57175853    -0.16000
C256        C  0.46414448  0.95377793  0.52925627     0.04500
C257        C  0.46119714  0.97512690  0.48595825     0.04500
C258        C  0.49496875  0.49585509  0.47786460    -0.16000
H259        H  0.49383130  0.50940249  0.44194155     0.06500
H260        H  0.99893149  0.94471799  0.60786964     0.06500
In261      In  0.29143388  0.72338352  0.77525904     1.36900
C262        C  0.24429475  0.70751621  0.83491051     0.79800
O263        O  0.24480103  0.69942174  0.70536526    -0.58600
O264        O  0.30350635  0.67884500  0.73316114    -0.49500
C265        C  0.29151464  0.77421342  0.71531167     0.72500
O266        O  0.26431659  0.76888959  0.73772797    -0.44400
C267        C  0.35628907  0.73157663  0.86315048     0.77200
O268        O  0.23567211  0.73031373  0.80204619    -0.56200
O269        O  0.35842256  0.71633860  0.82155019    -0.46300
O270        O  0.27614608  0.69265180  0.83587008    -0.52700
C271        C  0.26754229  0.67746650  0.69992012     0.87400
O272        O  0.31970646  0.75422816  0.72546295    -0.54600
O273        O  0.32231548  0.74424047  0.85788553    -0.57900
In274      In  0.16882741  0.62995587  0.98966952     1.36900
C275        C  0.16483861  0.58059788  0.92375713     0.79800
O276        O  0.17409255  0.66149985  0.92328610    -0.58600
O277        O  0.22620768  0.65723421  0.99417118    -0.49500
C278        C  0.10545202  0.66637326  0.98845209     0.72500
O279        O  0.10620210  0.64895789  0.94897198    -0.44400
C280        C  0.19835156  0.60079417  0.08544067     0.77200
O281        O  0.13527547  0.58824511  0.94030962    -0.56200
O282        O  0.21708654  0.62363036  0.07247991    -0.46300
O283        O  0.19619612  0.59780686  0.94155388    -0.52700
C284        C  0.21124047  0.66824694  0.94655722     0.87400
O285        O  0.13681029  0.66460672  0.03018094    -0.54600
O286        O  0.16394872  0.59434496  0.05106795    -0.57900
In287      In  0.20201857  0.74417741  0.25739909     1.36900
C288        C  0.25348541  0.75790727  0.20316162     0.79800
O289        O  0.16715926  0.73185846  0.17115533    -0.58600
O290        O  0.13669260  0.75977536  0.21523200    -0.49500
C291        C  0.19201337  0.69339391  0.31147309     0.72500
O292        O  0.21975847  0.69559376  0.28894772    -0.44400
C293        C  0.23651478  0.78238499  0.34157349     0.77200
O294        O  0.24526543  0.72967888  0.21134680    -0.56200
O295        O  0.20278302  0.78899123  0.30582177    -0.46300
O296        O  0.23641138  0.77843593  0.22406321    -0.52700
C297        C  0.13535211  0.74638375  0.17043548     0.87400
O298        O  0.16830342  0.71655330  0.30411059    -0.54600
O299        O  0.25141275  0.75634371  0.33445119    -0.57900
In300      In  0.32909911  0.85012063  0.06882724     1.36900
C301        C  0.32755956  0.90294853  0.12315652     0.79800
O302        O  0.31597496  0.87749770  0.99175529    -0.58600
O303        O  0.26779891  0.84915997  0.00166976    -0.49500
C304        C  0.39383874  0.82201737  0.05469376     0.72500
O305        O  0.39683644  0.84722086  0.08182549    -0.44400
C306        C  0.31338806  0.81124582  0.13972747     0.77200
O307        O  0.35722234  0.89630087  0.10595800    -0.56200
O308        O  0.29646194  0.80801414  0.08855889    -0.46300
O309        O  0.29865536  0.88304309  0.11111093    -0.51500
C310        C  0.27889010  0.86916279  0.97301582     0.87400
O311        O  0.35771019  0.81186079  0.03352378    -0.54600
O312        O  0.33963932  0.83304105  0.15385873    -0.57900
C313        C  0.46102735  0.73968486  0.97406626     0.04500
C314        C  0.46079968  0.75800654  0.02042854     0.04500
C315        C  0.49419498  0.75584050  0.06880618    -0.16000
C316        C  0.02681401  0.74176213  0.06749610     0.04500
C317        C  0.02732412  0.72173436  0.02305466     0.04500
C318        C  0.49440999  0.72029446  0.97733814    -0.16000
H319        H  0.49267486  0.70564714  0.94206516     0.06500
H320        H  0.99183005  0.77409753  0.09847429     0.06500
C321        C  0.42993992  0.80516707  0.05013871    -0.14200
C322        C  0.42581470  0.77868774  0.01986192    -0.29400
H323        H  0.46004973  0.81409468  0.07359168     0.14800
H324        H  0.39523190  0.77193788  0.99517829     0.15400
C325        C  0.06145988  0.74449671  0.11958419    -0.14200
C326        C  0.10037124  0.74732294  0.11990316    -0.29400
H327        H  0.05465419  0.74517852  0.15820894     0.14800
H328        H  0.10726892  0.74736858  0.08137534     0.15400
C329        C  0.30074284  0.79368614  0.18072113    -0.14200
C330        C  0.27878870  0.76699179  0.16897043    -0.29400
H331        H  0.30557034  0.80518056  0.22029025     0.14800
H332        H  0.27533517  0.75415882  0.13099575     0.15400
C333        C  0.07092171  0.68771695  0.98387489    -0.14200
C334        C  0.06189291  0.69944702  0.02760767    -0.29400
H335        H  0.05294497  0.69394856  0.94255189     0.14800
H336        H  0.08073078  0.69239772  0.06817004     0.15400
C337        C  0.42792337  0.74021503  0.92045159    -0.14200
C338        C  0.38916964  0.73260691  0.91589191    -0.29400
H339        H  0.43631070  0.74420119  0.88351358     0.14800
H340        H  0.38079965  0.72685031  0.95217018     0.15400
C341        C  0.21904338  0.69838875  0.86916666    -0.14200
C342        C  0.23609349  0.68501861  0.91819175    -0.29400
H343        H  0.18607301  0.70126669  0.85287932     0.14800
H344        H  0.26923623  0.68371362  0.93532614     0.15400
C345        C  0.06780353  0.51492292  0.51974820    -0.14200
C346        C  0.06515069  0.54188194  0.49175071    -0.29400
H347        H  0.09810555  0.50667554  0.54272373     0.14800
H348        H  0.03538365  0.55092914  0.46856448     0.15400
C349        C  0.18918370  0.66646145  0.34594353    -0.14200
C350        C  0.16072641  0.66457063  0.37185799    -0.29400
H351        H  0.21260547  0.64860148  0.35261819     0.14800
H352        H  0.13683691  0.68206283  0.36471466     0.15400
C353        C  0.25290566  0.65259260  0.65738637    -0.14200
C354        C  0.21301685  0.65059531  0.62743106    -0.29400
H355        H  0.27493709  0.63656717  0.64957991     0.14800
H356        H  0.19137839  0.66673732  0.63599123     0.15400
C357        C  0.32714036  0.93126399  0.15620716    -0.14200
C358        C  0.30021628  0.93385595  0.18428653    -0.29400
H359        H  0.35034432  0.94934824  0.15974451     0.14800
H360        H  0.27815745  0.91507962  0.18228956     0.15400
C361        C  0.21502624  0.58174689  0.13527358    -0.14200
C362        C  0.25479543  0.58205048  0.16598021    -0.29400
H363        H  0.19426827  0.56462530  0.14388119     0.14800
H364        H  0.27618606  0.59835488  0.15680167     0.15400
C365        C  0.41039034  0.00302501  0.40965946    -0.14200
C366        C  0.42378560  0.97626389  0.43687055    -0.29400
H367        H  0.42742461  0.52590513  0.41513887     0.14800
H368        H  0.40576264  0.95486777  0.42417070     0.15400
C369        C  0.22428312  0.52365331  0.37944851    -0.14200
C370        C  0.23808263  0.53693931  0.42951604    -0.29400
H371        H  0.19159580  0.52035673  0.35944286     0.14800
H372        H  0.27085051  0.53929621  0.44997861     0.15400
C373        C  0.39115043  0.93966757  0.51888074    -0.14200
C374        C  0.43078240  0.93173539  0.53166816    -0.29400
H375        H  0.38132423  0.96300342  0.50395174     0.14800
H376        H  0.43991738  0.90874823  0.54925237     0.15400
C377        C  0.28906325  0.80105958  0.67842012    -0.14200
C378        C  0.31861565  0.80802023  0.65603257    -0.29400
H379        H  0.26133091  0.81494212  0.66801032     0.14800
H380        H  0.34693268  0.79485765  0.66739622     0.15400
C381        C  0.25807089  0.80284699  0.38844476    -0.14200
C382        C  0.24511831  0.83147814  0.39712169    -0.29400
H383        H  0.28576743  0.79360372  0.41740667     0.14800
H384        H  0.21726867  0.84088908  0.36882615     0.15400
C385        C  0.19245972  0.54882106  0.86343870    -0.14200
C386        C  0.16311805  0.55350733  0.88707158    -0.29400
H387        H  0.21727366  0.56582694  0.86948251     0.14800
H388        H  0.13754496  0.53708775  0.87967538     0.15400
C389        C  0.26334155  0.90736242  0.89937636    -0.14200
C390        C  0.25041171  0.88330942  0.92340850    -0.29400
H391        H  0.29532855  0.91468692  0.91447418     0.14800
H392        H  0.21849713  0.87582812  0.90946399     0.15400
C393        C  0.06725325  0.98085197  0.62359315    -0.14200
C394        C  0.08040608  0.95766206  0.66005848    -0.29400
H395        H  0.08476322  0.00268152  0.63008070     0.14800
H396        H  0.06427155  0.93529024  0.65515724     0.15400
C397        C  0.25785703  0.94847817  0.66951644    -0.14200
C398        C  0.24005850  0.93219283  0.62323232    -0.29400
H399        H  0.29022766  0.95463901  0.68175802     0.14800
H400        H  0.20720957  0.92764040  0.61045766     0.15400
In401      In  0.69461521  0.46639066  0.77182057     1.36900
C402        C  0.73282650  0.45706325  0.69827590     0.79800
O403        O  0.75105188  0.45593179  0.83974975    -0.58600
O404        O  0.70024400  0.42446738  0.82734511    -0.49500
C405        C  0.70062751  0.02594333  0.83949515     0.72500
O406        O  0.72438803  0.02616105  0.81049714    -0.44400
C407        C  0.62040027  0.46071948  0.70089117     0.77200
O408        O  0.72192246  0.48411194  0.70792463    -0.56200
O409        O  0.63486988  0.43977591  0.73622361    -0.46300
O410        O  0.72524787  0.43549566  0.72712885    -0.52700
C411        C  0.73693769  0.43136479  0.85468831     0.87400
O412        O  0.66612697  0.49472544  0.82353769    -0.54600
O413        O  0.64312438  0.48449016  0.70428748    -0.57900
In414      In  0.81106649  0.37640605  0.54951914     1.36900
C415        C  0.81656771  0.32738556  0.61536872     0.79800
O416        O  0.82585607  0.39890411  0.63142960    -0.58600
O417        O  0.76851912  0.40984542  0.57193732    -0.49500
C418        C  0.86384382  0.41496166  0.52340543     0.72500
O419        O  0.87473951  0.38934574  0.54823226    -0.44400
C420        C  0.76814568  0.34762926  0.45673120     0.77200
O421        O  0.84689357  0.33720714  0.60165799    -0.56200
O422        O  0.75339304  0.36973307  0.47754595    -0.46300
O423        O  0.78369469  0.34197606  0.59392182    -0.52700
C424        C  0.79209960  0.41279496  0.62084265     0.87400
O425        O  0.82596945  0.42009531  0.51030131    -0.54600
O426        O  0.80509782  0.34155489  0.48200340    -0.57900
In427      In  0.79737134  0.00797711  0.28390528     1.36900
C428        C  0.75101546  0.01456146  0.34906410     0.79800
O429        O  0.84601654  0.48281327  0.34055559    -0.58600
O430        O  0.85866023  0.02758070  0.33236691    -0.49500
C431        C  0.80092852  0.46130331  0.21250715     0.72500
O432        O  0.77991399  0.46187073  0.24491560    -0.44400
C433        C  0.76995518  0.05542717  0.21463961     0.77200
O434        O  0.74217488  0.49980236  0.29709957    -0.56200
O435        O  0.80738199  0.05246063  0.24123595    -0.46300
O436        O  0.78564534  0.02756773  0.35878962    -0.52700
C437        C  0.87189061  0.50503344  0.35352306     0.87400
O438        O  0.82162984  0.48591435  0.21263668    -0.54600
O439        O  0.74699266  0.03465781  0.22446222    -0.57900
In440      In  0.66772298  0.09150589  0.49486204     1.36900
C441        C  0.66381418  0.13629607  0.42069885     0.79800
O442        O  0.66233513  0.12903543  0.55395782    -0.58600
O443        O  0.71717449  0.10316460  0.57556328    -0.49500
C444        C  0.60360597  0.05683127  0.50115026     0.72500
O445        O  0.60029866  0.08025727  0.47052334    -0.44400
C446        C  0.71112173  0.05173153  0.45654970     0.77200
O447        O  0.63339566  0.12845730  0.43535156    -0.56200
O448        O  0.72406220  0.06308940  0.50455772    -0.46300
O449        O  0.69593388  0.12145367  0.44403379    -0.52700
C450        C  0.69741455  0.12533496  0.58762502     0.87400
O451        O  0.64000070  0.05080805  0.52916074    -0.54600
O452        O  0.67475701  0.05879555  0.42982612    -0.57900
C453        C  0.53246517  0.99279331  0.53198210     0.04500
C454        C  0.53248606  0.47792241  0.56929808     0.04500
C455        C  0.50002100  0.45693279  0.56638520    -0.16000
C456        C  0.96453382  0.45575678  0.52112386     0.04500
C457        C  0.96128620  0.47579656  0.47586550     0.04500
C458        C  0.99481144  0.99334567  0.47951949    -0.16000
H459        H  0.99424218  0.00561970  0.44250568     0.06500
H460        H  0.50120308  0.44221742  0.60106394     0.06500
In461      In  0.78992881  0.22098953  0.78019921     1.36900
C462        C  0.74316867  0.20732429  0.84194456     0.79800
O463        O  0.74320209  0.19399070  0.71535777    -0.58600
O464        O  0.80339719  0.17586520  0.74072393    -0.49500
C465        C  0.79013833  0.26907446  0.71377825     0.72500
O466        O  0.76288264  0.26528790  0.73671366    -0.44400
C467        C  0.85478836  0.23374337  0.86607534     0.77200
O468        O  0.73330227  0.22811928  0.80528346    -0.56200
O469        O  0.85607046  0.21371870  0.82982450    -0.46300
O470        O  0.77637355  0.19352237  0.84620440    -0.52700
C471        C  0.76691473  0.17287591  0.70943644     0.87400
O472        O  0.81780185  0.24865352  0.72570312    -0.54600
O473        O  0.82136056  0.24803764  0.85660777    -0.57900
In474      In  0.66979531  0.13074134  0.00023715     1.36900
C475        C  0.66945371  0.08130247  0.93651281     0.79800
O476        O  0.67365567  0.16128450  0.93161969    -0.58600
O477        O  0.72480715  0.16091077  0.00436339    -0.49500
C478        C  0.60558706  0.16561673  0.99879742     0.72500
O479        O  0.60599949  0.14715722  0.96043417    -0.44400
C480        C  0.69821450  0.10131478  0.09557965     0.77200
O481        O  0.63836297  0.08868869  0.94988477    -0.56200
O482        O  0.71848180  0.12285545  0.08182035    -0.46300
O483        O  0.70032989  0.09871821  0.95654022    -0.52700
C484        C  0.70990902  0.17025642  0.95555592     0.87400
O485        O  0.63785855  0.16577461  0.03949955    -0.54600
O486        O  0.66283245  0.09656017  0.06247845    -0.57900
In487      In  0.69920615  0.24302812  0.26572095     1.36900
C488        C  0.74291383  0.25806023  0.20127258     0.79800
O489        O  0.66187441  0.22671846  0.18336607    -0.58600
O490        O  0.63368332  0.25842552  0.22511724    -0.49500
C491        C  0.69405947  0.19278008  0.32396410     0.72500
O492        O  0.72206972  0.19630758  0.30219222    -0.44400
C493        C  0.73627008  0.28250468  0.34679205     0.77200
O494        O  0.73797336  0.22966852  0.21249407    -0.56200
O495        O  0.69961054  0.28676593  0.31691005    -0.46300
O496        O  0.72679352  0.27807884  0.22454139    -0.52700
C497        C  0.63110525  0.24287533  0.18176494     0.87400
O498        O  0.66796320  0.21441794  0.31427079    -0.54600
O499        O  0.75287510  0.25822964  0.33532080    -0.57900
In500      In  0.82378078  0.34793962  0.06276070     1.36900
C501        C  0.82628436  0.40163726  0.11633612     0.79800
O502        O  0.81332919  0.38022981  0.99206684    -0.58600
O503        O  0.76579914  0.34745215  0.99021267    -0.49500
C504        C  0.88890048  0.31671369  0.05537614     0.72500
O505        O  0.88958330  0.33434723  0.09516653    -0.44400
C506        C  0.79874298  0.31164799  0.12984216     0.77200
O507        O  0.85593292  0.39293417  0.10050580    -0.56200
O508        O  0.78576989  0.30704297  0.07843060    -0.46300
O509        O  0.79543027  0.38353597  0.10264892    -0.51500
C510        C  0.77741019  0.37046091  0.96765123     0.87400
O511        O  0.85521053  0.31597249  0.01731353    -0.54600
O512        O  0.82506212  0.33314358  0.14558309    -0.57900
C513        C  0.96276883  0.24067856  0.97209366     0.04500
C514        C  0.96514295  0.26311726  0.01439970     0.04500
C515        C  0.00068223  0.26390531  0.06057670    -0.16000
C516        C  0.52371846  0.23810901  0.07673692     0.04500
C517        C  0.52510156  0.21832180  0.03245170     0.04500
C518        C  0.99518276  0.21970868  0.97827706    -0.16000
H519        H  0.99175853  0.20189845  0.94677905     0.06500
H520        H  0.48843308  0.27104620  0.10585373     0.06500
C521        C  0.92416635  0.29708869  0.05650381    -0.14200
C522        C  0.93161718  0.28601167  0.01124195    -0.29400
H523        H  0.94347158  0.29058895  0.09704000     0.14800
H524        H  0.91179790  0.29321898  0.97135461     0.15400
C525        C  0.55744836  0.24050524  0.12971912    -0.14200
C526        C  0.59645836  0.24389131  0.13107536    -0.29400
H527        H  0.54992582  0.24063308  0.16785067     0.14800
H528        H  0.60388160  0.24447459  0.09292452     0.15400
C529        C  0.78273353  0.29608504  0.16973506    -0.14200
C530        C  0.76449763  0.26780825  0.16264197    -0.29400
H531        H  0.78530465  0.30943662  0.20702777     0.14800
H532        H  0.76387952  0.25285869  0.12788402     0.15400
C533        C  0.57040321  0.18611840  0.99398929    -0.14200
C534        C  0.56010978  0.19652628  0.03752784    -0.29400
H535        H  0.55292719  0.19277141  0.95267477     0.14800
H536        H  0.57841030  0.18905588  0.07810943     0.15400
C537        C  0.92789686  0.23739574  0.92011390    -0.14200
C538        C  0.88841913  0.23922800  0.91742157    -0.29400
H539        H  0.93505535  0.23068477  0.88315270     0.14800
H540        H  0.87991014  0.24444327  0.95383417     0.15400
C541        C  0.71745985  0.19879069  0.87610130    -0.14200
C542        C  0.73429197  0.18751911  0.92692504    -0.29400
H543        H  0.68439022  0.19980367  0.85799858     0.14800
H544        H  0.76738204  0.18802593  0.94558835     0.15400
C545        C  0.56945371  0.01119867  0.52991399    -0.14200
C546        C  0.56717015  0.03867429  0.50331989    -0.29400
H547        H  0.59957502  0.00203736  0.55124678     0.14800
H548        H  0.53754441  0.04870615  0.48237035     0.15400
C549        C  0.69312863  0.16598921  0.35966111    -0.14200
C550        C  0.66214988  0.16118899  0.38038194    -0.29400
H551        H  0.71932964  0.15045941  0.37068971     0.14800
H552        H  0.63539787  0.17613500  0.36833386     0.15400
C553        C  0.75272907  0.14749364  0.66777546    -0.14200
C554        C  0.71335684  0.14642406  0.63558391    -0.29400
H555        H  0.77475986  0.13093503  0.66147900     0.14800
H556        H  0.69193711  0.16350534  0.64205577     0.15400
C557        C  0.82764364  0.43017654  0.14966750    -0.14200
C558        C  0.80058673  0.43385460  0.17734417    -0.29400
H559        H  0.85180970  0.44747773  0.15345400     0.14800
H560        H  0.77783234  0.41562409  0.17542234     0.15400
C561        C  0.71437243  0.08159176  0.14454392    -0.14200
C562        C  0.75438534  0.08031930  0.17359082    -0.29400
H563        H  0.69297601  0.06514091  0.15341389     0.14800
H564        H  0.77625004  0.09612360  0.16430230     0.15400
C565        C  0.91107039  0.50298801  0.39829838    -0.14200
C566        C  0.92355928  0.47652918  0.42716069    -0.29400
H567        H  0.92704453  0.02277890  0.41428338     0.14800
H568        H  0.90460513  0.45548067  0.41628036     0.15400
C569        C  0.72369670  0.02124230  0.38185299    -0.14200
C570        C  0.73805124  0.03455900  0.43186905    -0.29400
H571        H  0.69091061  0.01832609  0.36219624     0.14800
H572        H  0.77089024  0.03641717  0.45215054     0.15400
C573        C  0.89273818  0.43796617  0.51194871    -0.14200
C574        C  0.93294090  0.43207419  0.52403183    -0.29400
H575        H  0.88093582  0.46075184  0.49623846     0.14800
H576        H  0.94417825  0.40974415  0.54285636     0.15400
C577        C  0.78885043  0.29513385  0.67545438    -0.14200
C578        C  0.81929642  0.30121698  0.65407252    -0.29400
H579        H  0.76183304  0.30981615  0.66456669     0.14800
H580        H  0.84695107  0.28726531  0.66606458     0.15400
C581        C  0.75928081  0.30355148  0.39199877    -0.14200
C582        C  0.74376625  0.32943569  0.40791513    -0.29400
H583        H  0.79048635  0.29677630  0.41404401     0.14800
H584        H  0.71245821  0.33632154  0.38683012     0.15400
C585        C  0.69960743  0.05206705  0.87663434    -0.14200
C586        C  0.66980064  0.05466703  0.89997129    -0.29400
H587        H  0.72346065  0.06999608  0.88390204     0.14800
H588        H  0.64484409  0.03759060  0.89091043     0.15400
C589        C  0.76250381  0.41298546  0.90096721    -0.14200
C590        C  0.75063170  0.38583382  0.91802165    -0.29400
H591        H  0.79259791  0.42279007  0.92253787     0.14800
H592        H  0.72051168  0.37585073  0.89731653     0.15400
C593        C  0.56784053  0.48064876  0.62050674    -0.14200
C594        C  0.58110084  0.45731506  0.65680918    -0.29400
H595        H  0.58500427  0.50265465  0.62763918     0.14800
H596        H  0.56544873  0.43473636  0.65168885     0.15400
C597        C  0.75171314  0.45031613  0.65559813    -0.14200
C598        C  0.78012851  0.42805220  0.66463142    -0.29400
H599        H  0.74022942  0.46158114  0.61594672     0.14800
H600        H  0.79304157  0.41866287  0.70569014     0.15400
In601      In  0.70266896  0.97926877  0.77272217     1.36900
C602        C  0.74061277  0.96755977  0.70026984     0.79800
O603        O  0.75859263  0.95992022  0.83109265    -0.58600
O604        O  0.70259567  0.93556950  0.82329493    -0.49500
C605        C  0.69118599  0.51731672  0.82907880     0.72500
O606        O  0.71778632  0.51385732  0.80499409    -0.44400
C607        C  0.63112727  0.98763660  0.69782356     0.77200
O608        O  0.75108710  0.99065090  0.73322415    -0.56200
O609        O  0.63942040  0.96249600  0.72521964    -0.46300
O610        O  0.71091497  0.95129607  0.70450894    -0.52700
C611        C  0.74104099  0.93727044  0.84605884     0.87400
O612        O  0.67808178  0.00177490  0.83427595    -0.54600
O613        O  0.65869291  0.00863850  0.71072484    -0.57900
In614      In  0.80295411  0.88115762  0.54263738     1.36900
C615        C  0.81384073  0.83565954  0.61754302     0.79800
O616        O  0.80391071  0.91815851  0.60582551    -0.58600
O617        O  0.74671977  0.90477304  0.54787561    -0.49500
C618        C  0.85968059  0.91821087  0.52267828     0.72500
O619        O  0.86873479  0.89450605  0.55323269    -0.44400
C620        C  0.76682092  0.85009787  0.44880524     0.77200
O621        O  0.84251584  0.84575794  0.60100368    -0.56200
O622        O  0.75177483  0.87435953  0.46281012    -0.46300
O623        O  0.78013533  0.84906673  0.59641410    -0.52700
C624        C  0.76549078  0.92128063  0.58922960     0.87400
O625        O  0.82183265  0.92236985  0.50132077    -0.54600
O626        O  0.80102030  0.84250428  0.48162587    -0.57900
In627      In  0.79981805  0.51045682  0.27611978     1.36900
C628        C  0.75120421  0.51830706  0.33781568     0.79800
O629        O  0.84501417  0.97998350  0.34576155    -0.58600
O630        O  0.86119836  0.52983057  0.32614492    -0.49500
C631        C  0.79748085  0.96063366  0.21575744     0.72500
O632        O  0.77690339  0.95988080  0.24874539    -0.44400
C633        C  0.77206050  0.55603943  0.20280373     0.77200
O634        O  0.74049853  0.99717086  0.30685791    -0.56200
O635        O  0.80951612  0.55388607  0.23007216    -0.46300
O636        O  0.78544015  0.53202956  0.34768909    -0.52700
C637        C  0.87038159  0.00258355  0.35858154     0.87400
O638        O  0.81827382  0.98541864  0.21805840    -0.54600
O639        O  0.74947387  0.53551076  0.21405341    -0.57900
In640      In  0.66462605  0.59506948  0.48067635     1.36900
C641        C  0.66206948  0.63965324  0.40656489     0.79800
O642        O  0.66042548  0.63448993  0.53712653    -0.58600
O643        O  0.71281729  0.60584393  0.56272234    -0.49500
C644        C  0.60040196  0.56111541  0.48889826     0.72500
O645        O  0.59721424  0.58305369  0.45522436    -0.44400
C646        C  0.70886750  0.55527326  0.44343141     0.77200
O647        O  0.63114979  0.63221823  0.42047835    -0.56200
O648        O  0.72219921  0.56848550  0.48988270    -0.46300
O649        O  0.69364537  0.62429625  0.43012862    -0.52700
C650        C  0.69452360  0.62962177  0.57245378     0.87400
O651        O  0.63666727  0.55625569  0.51880072    -0.54600
O652        O  0.67157777  0.56021763  0.41792605    -0.57900
C653        C  0.53056012  0.49722866  0.52371626     0.04500
C654        C  0.53456741  0.97170800  0.57543086     0.04500
C655        C  0.50092857  0.95218942  0.57262852    -0.16000
C656        C  0.96308204  0.95595930  0.52582838     0.04500
C657        C  0.96081187  0.97452727  0.47925177     0.04500
C658        C  0.99537357  0.49475207  0.47639151    -0.16000
H659        H  0.99450198  0.50786003  0.44010103     0.06500
H660        H  0.50317104  0.93581156  0.60560335     0.06500
In661      In  0.79022720  0.72177168  0.77085495     1.36900
C662        C  0.74211955  0.70559830  0.82911095     0.79800
O663        O  0.74279252  0.69747569  0.70224622    -0.58600
O664        O  0.80233465  0.67829924  0.72580090    -0.49500
C665        C  0.79121169  0.77390292  0.71346884     0.72500
O666        O  0.76409723  0.76814817  0.73580154    -0.44400
C667        C  0.85454015  0.72884898  0.86010819     0.77200
O668        O  0.73361007  0.72822393  0.79589398    -0.56200
O669        O  0.85646032  0.71269219  0.81930619    -0.46300
O670        O  0.77444499  0.69105995  0.83124672    -0.52700
C671        C  0.76574952  0.67628697  0.69454728     0.87400
O672        O  0.81876561  0.75344330  0.72180690    -0.54600
O673        O  0.82104634  0.74252916  0.85361015    -0.57900
In674      In  0.66747293  0.62782618  0.98506196     1.36900
C675        C  0.66227632  0.57815442  0.91982639     0.79800
O676        O  0.67164430  0.65912083  0.91741160    -0.58600
O677        O  0.72349516  0.65663069  0.98896472    -0.49500
C678        C  0.60487195  0.66376791  0.98688408     0.72500
O679        O  0.60441234  0.64619073  0.94706847    -0.44400
C680        C  0.69862638  0.59872237  0.08042299     0.77200
O681        O  0.63280455  0.58635006  0.93607659    -0.56200
O682        O  0.71828505  0.61987933  0.06469569    -0.46300
O683        O  0.69388422  0.59512228  0.93723443    -0.52700
C684        C  0.70840956  0.66695787  0.94090146     0.87400
O685        O  0.63712985  0.66239901  0.02740674    -0.54600
O686        O  0.66269447  0.59387647  0.04894998    -0.57900
In687      In  0.70474463  0.74588045  0.25655220     1.36900
C688        C  0.74904084  0.76197622  0.19355647     0.79800
O689        O  0.66824698  0.72735171  0.17514765    -0.58600
O690        O  0.63955536  0.76045920  0.21399317    -0.49500
C691        C  0.69666644  0.69596792  0.31347577     0.72500
O692        O  0.72556539  0.69886948  0.29306545    -0.44400
C693        C  0.74008642  0.78456308  0.33953650     0.77200
O694        O  0.74675994  0.73368615  0.20741070    -0.56200
O695        O  0.70405104  0.78912437  0.30784526    -0.46300
O696        O  0.72990639  0.78153037  0.21341240    -0.52700
C697        C  0.63711868  0.74342672  0.17228432     0.87400
O698        O  0.67144654  0.71821655  0.30346404    -0.54600
O699        O  0.75731128  0.76048621  0.32850667    -0.57900
In700      In  0.82342505  0.85423207  0.05410910     1.36900
C701        C  0.82207857  0.90621820  0.11120241     0.79800
O702        O  0.81391294  0.88226958  0.97846023    -0.58600
O703        O  0.76319544  0.85566388  0.98477127    -0.49500
C704        C  0.88884341  0.82490216  0.04368284     0.72500
O705        O  0.89142072  0.85038239  0.06997674    -0.44400
C706        C  0.80437772  0.81626726  0.12343196     0.77200
O707        O  0.85160557  0.90009246  0.09337140    -0.56200
O708        O  0.78865405  0.81256533  0.07205788    -0.46300
O709        O  0.79295859  0.88652619  0.09770732    -0.51500
C710        C  0.77641045  0.87554891  0.95802004     0.87400
O711        O  0.85273525  0.81492606  0.02138381    -0.54600
O712        O  0.83120164  0.83760217  0.13818090    -0.57900
C713        C  0.95894317  0.74053997  0.97051732     0.04500
C714        C  0.95831788  0.76037634  0.01501861     0.04500
C715        C  0.99214486  0.75999500  0.06329615    -0.16000
C716        C  0.52825850  0.73733674  0.07144909     0.04500
C717        C  0.52830713  0.71856424  0.02539504     0.04500
C718        C  0.99307925  0.72167592  0.97525695    -0.16000
H719        H  0.99174254  0.70594204  0.94141046     0.06500
H720        H  0.49412299  0.76898213  0.10512416     0.06500
C721        C  0.92545604  0.80775232  0.04131070    -0.14200
C722        C  0.92246692  0.78074072  0.01253235    -0.29400
H723        H  0.95518156  0.81719368  0.06506382     0.14800
H724        H  0.89226365  0.77338783  0.98724383     0.15400
C725        C  0.56329952  0.73934926  0.12303547    -0.14200
C726        C  0.60186451  0.74263994  0.12229463    -0.29400
H727        H  0.55707692  0.74012340  0.16205640     0.14800
H728        H  0.60836287  0.74266625  0.08350775     0.15400
C729        C  0.79016165  0.79996045  0.16424616    -0.14200
C730        C  0.77107530  0.77202369  0.15574515    -0.29400
H731        H  0.79353795  0.81269223  0.20238147     0.14800
H732        H  0.76951013  0.75776574  0.11983005     0.15400
C733        C  0.57071789  0.68505565  0.98380102    -0.14200
C734        C  0.56218171  0.69595983  0.02834854    -0.29400
H735        H  0.55274773  0.69199621  0.94290790     0.14800
H736        H  0.58100853  0.68808002  0.06837738     0.15400
C737        C  0.92570877  0.73918549  0.91702809    -0.14200
C738        C  0.88738162  0.73049457  0.91296445    -0.29400
H739        H  0.93379932  0.74296323  0.87980129     0.14800
H740        H  0.87920752  0.72550191  0.94969752     0.15400
C741        C  0.71623528  0.69627861  0.86246112    -0.14200
C742        C  0.73301435  0.68413532  0.91258032    -0.29400
H743        H  0.68319397  0.69791317  0.84467583     0.14800
H744        H  0.76612882  0.68411231  0.93096545     0.15400
C745        C  0.56688115  0.51680545  0.52215613    -0.14200
C746        C  0.56408590  0.54302275  0.49199844    -0.29400
H747        H  0.59723101  0.50910416  0.54601571     0.14800
H748        H  0.53429015  0.55171216  0.46822384     0.15400
C749        C  0.69376039  0.66909544  0.34798761    -0.14200
C750        C  0.66181907  0.66474896  0.36706194    -0.29400
H751        H  0.71934771  0.65299131  0.35947729     0.14800
H752        H  0.63566303  0.68026707  0.35464787     0.15400
C753        C  0.75059563  0.65152100  0.65186129    -0.14200
C754        C  0.71115460  0.65107650  0.61982302    -0.29400
H755        H  0.77196928  0.63439753  0.64547466     0.14800
H756        H  0.69039039  0.66878845  0.62604760     0.15400
C757        C  0.82216723  0.93353287  0.14683264    -0.14200
C758        C  0.79686556  0.93449658  0.17760449    -0.29400
H759        H  0.84463117  0.95216059  0.15010409     0.14800
H760        H  0.77568565  0.91512425  0.17587990     0.15400
C761        C  0.71583807  0.57974792  0.13011915    -0.14200
C762        C  0.75586123  0.57974044  0.15961863    -0.29400
H763        H  0.69504122  0.56315672  0.13999476     0.14800
H764        H  0.77716518  0.59578491  0.14962147     0.15400
C765        C  0.91003500  0.00088009  0.40224803    -0.14200
C766        C  0.92380787  0.97434293  0.42983401    -0.29400
H767        H  0.92896482  0.52453045  0.40942258     0.14800
H768        H  0.90594704  0.95278242  0.41834526     0.15400
C769        C  0.72285018  0.52506277  0.36910158    -0.14200
C770        C  0.73634419  0.53855197  0.41902422    -0.29400
H771        H  0.69022916  0.52166721  0.34875532     0.14800
H772        H  0.76909276  0.54091493  0.43966092     0.15400
C773        C  0.89036377  0.94009445  0.51339699    -0.14200
C774        C  0.93051813  0.93354898  0.52966609    -0.29400
H775        H  0.87956336  0.96244181  0.49455688     0.14800
H776        H  0.94055444  0.91174845  0.55133974     0.15400
C777        C  0.78926507  0.80181952  0.67875390    -0.14200
C778        C  0.81899433  0.80965744  0.65714005    -0.29400
H779        H  0.76165774  0.81580691  0.66924298     0.14800
H780        H  0.84711369  0.79627114  0.66748762     0.15400
C781        C  0.76135516  0.80504146  0.38656799    -0.14200
C782        C  0.74538352  0.83166260  0.39894215    -0.29400
H783        H  0.79124926  0.79752123  0.41245731     0.14800
H784        H  0.71556327  0.83943174  0.37329125     0.15400
C785        C  0.69047365  0.54544779  0.86205191    -0.14200
C786        C  0.66035130  0.55076258  0.88390184    -0.29400
H787        H  0.71584082  0.56204738  0.86911575     0.14800
H788        H  0.63430763  0.53474726  0.87575203     0.15400
C789        C  0.76521687  0.91576908  0.88814099    -0.14200
C790        C  0.74986710  0.89157853  0.90899316    -0.29400
H791        H  0.79764055  0.92157292  0.90499493     0.14800
H792        H  0.71747919  0.88556807  0.89338569     0.15400
C793        C  0.57146798  0.96789629  0.62402789    -0.14200
C794        C  0.59306881  0.99227449  0.65243698    -0.29400
H795        H  0.57995608  0.94416175  0.63824593     0.14800
H796        H  0.58440149  0.01616789  0.63964335     0.15400
C797        C  0.76229591  0.95869340  0.66143324    -0.14200
C798        C  0.74329182  0.94023981  0.61824880    -0.29400
H799        H  0.79469603  0.96437833  0.67139417     0.14800
H800        H  0.71047812  0.93593958  0.60765818     0.15400
loop_ 
_geom_bond_atom_site_label_1 
_geom_bond_atom_site_label_2 
_geom_bond_distance 
_geom_bond_site_symmetry_2 
_ccdc_geom_bond_type 
In1           O3   2.213       .  S
In1           O4   2.267       .  S
In1          O12   2.239       .  S
In1           O8   2.266       .  S
In1           O9   2.265       .  S
In1          O10   2.224       .  S
In1          O13   2.209       .  S
In1         O206   2.245       .  S
C2            O8   1.261       .  A
C2           O10   1.258       .  A
C2          C197   1.470       .  S
O3           C11   1.261       .  A
O4           C11   1.268       .  A
C5            O6   1.260       .  A
C5          O212   1.262   1_545  A
C5          C185   1.466       .  S
O6         In201   2.230   1_545  S
C7            O9   1.265       .  A
C7           O13   1.259       .  A
C7          C194   1.475       .  S
C11         C189   1.473       .  S
O12         C205   1.262       .  A
In14         O16   2.222       .  S
In14         O17   2.256       .  S
In14         O25   2.247       .  S
In14         O19   2.264       .  S
In14         O21   2.264       .  S
In14         O22   2.269       .  S
In14         O23   2.229       .  S
In14         O26   2.235       .  S
C15          O21   1.268       .  A
C15          O23   1.262       .  A
C15         C178   1.479       .  S
O16          C24   1.260       .  A
O17          C24   1.267       .  A
C18          O25   1.260       .  A
C18          O19   1.266       .  A
C18         C173   1.482       .  S
C20          O22   1.264       .  A
C20          O26   1.262       .  A
C20         C182   1.484       .  S
C24         C198   1.468       .  S
In27         O30   2.249       .  S
In27         O35   2.276       .  S
In27         O36   2.233       .  S
In27         O39   2.241       .  S
In27        O229   2.252   1_545  S
In27        O238   2.245   1_545  S
In27        O232   2.239   1_545  S
In27        O234   2.251   1_545  S
C28          O36   1.261       .  A
C28         O234   1.260   1_545  A
C28         C169   1.469       .  S
O29        In227   2.242       .  S
O29          C37   1.262       .  A
O30         C237   1.263       .  A
C31          O38   1.261       .  A
C31          O32   1.260       .  A
C31         C158   1.466       .  S
O32        In227   2.234       .  S
C33          O35   1.262       .  A
C33          O39   1.258       .  A
C33         C162   1.481       .  S
O34        In227   2.249       .  S
O34         C228   1.260       .  A
C37         O230   1.264       .  A
C37         C165   1.471       .  S
O38        In227   2.240       .  S
In40         O42   2.248       .  S
In40         O43   2.267       .  S
In40         O51   2.263       .  S
In40         O45   2.246       .  S
In40         O47   2.260       .  S
In40         O48   2.240       .  S
In40         O49   2.249       .  S
In40         O52   2.239       .  S
C41          O47   1.259       .  A
C41          O49   1.257       .  A
C41         C150   1.474       .  S
O42          C50   1.257       .  A
O43          C50   1.259       .  A
C44          O51   1.263       .  A
C44          O45   1.258       .  A
C44         C146   1.478       .  S
C46          O48   1.261       .  A
C46          O52   1.263       .  A
C46         C170   1.469       .  S
C50         C154   1.475       .  S
C53         C145   1.498   1_565  S
C53         C254   1.416       .  A
C53         C458   1.407   1_455  A
C54         C193   1.490       .  S
C54          C55   1.406       .  A
C54         C253   1.417       .  A
C55         C456   1.404   1_455  A
C55          H60   1.083       .  S
C56         C174   1.494       .  S
C56          C57   1.420       .  A
C56         C455   1.402       .  A
C57         C166   1.489       .  S
C57         C258   1.412       .  A
C58         C453   1.413       .  A
C58         C257   1.412       .  A
C58          H59   1.081   1_565  S
In61         O63   2.229       .  S
In61         O64   2.265       .  S
In61         O72   2.255       .  S
In61         O66   2.247       .  S
In61         O68   2.252       .  S
In61         O69   2.258       .  S
In61         O70   2.222       .  S
In61         O73   2.225       .  S
C62          O68   1.267       .  A
C62          O70   1.263       .  A
C62         C141   1.470       .  S
O63          C71   1.259       .  A
O64          C71   1.265       .  A
C65          O72   1.261       .  A
C65          O66   1.263       .  A
C65         C177   1.477       .  S
C67          O69   1.267       .  A
C67          O73   1.260       .  A
C67         C138   1.467       .  S
C71         C153   1.478       .  S
In74         O76   2.238       .  S
In74         O77   2.252       .  S
In74         O85   2.268   1_556  S
In74         O79   2.235       .  S
In74         O81   2.259       .  S
In74         O82   2.268   1_556  S
In74         O83   2.229       .  S
In74         O86   2.234   1_556  S
C75          O81   1.260       .  A
C75          O83   1.257       .  A
C75         C186   1.468       .  S
O76          C84   1.260       .  A
O77          C84   1.263       .  A
C78          O85   1.262   1_556  A
C78          O79   1.257       .  A
C78         C133   1.473       .  S
C80          O82   1.264       .  A
C80          O86   1.260       .  A
C80         C161   1.476       .  S
C84         C142   1.471       .  S
In87         O89   2.218       .  S
In87         O90   2.270       .  S
In87         O98   2.243       .  S
In87         O92   2.249       .  S
In87         O94   2.258       .  S
In87         O95   2.275       .  S
In87         O96   2.213       .  S
In87         O99   2.219       .  S
C88          O94   1.266       .  A
C88          O96   1.262       .  A
C88         C130   1.470       .  S
O89          C97   1.257       .  A
O90          C97   1.268       .  A
C91          O98   1.262       .  A
C91          O92   1.263       .  A
C91         C149   1.475       .  S
C93          O95   1.269       .  A
C93          O99   1.262       .  A
C93         C181   1.478       .  S
C97         C126   1.470       .  S
In100       O102   2.229   1_554  S
In100       O103   2.269   1_554  S
In100       O111   2.242       .  S
In100       O105   2.243       .  S
In100       O107   2.249       .  S
In100       O108   2.260       .  S
In100       O109   2.220       .  S
In100       O112   2.227       .  S
C101        O107   1.264       .  A
C101        O109   1.262       .  A
C101        C157   1.469       .  S
O102        C110   1.260       .  A
O103        C110   1.262       .  A
C104        O111   1.261       .  A
C104        O105   1.259       .  A
C104        C121   1.472       .  S
C106        O108   1.265       .  A
C106        O112   1.257       .  A
C106        C129   1.467       .  S
C110        C190   1.480       .  S
C113        C137   1.485       .  S
C113        C114   1.418   1_556  A
C113        C118   1.400       .  A
C114        C122   1.492       .  S
C114        C115   1.408       .  A
C115        C516   1.400       .  A
C115        H520   1.084       .  S
C116        C125   1.492       .  S
C116        C117   1.421       .  A
C116        C515   1.401       .  A
C117        C134   1.499       .  S
C117        C518   1.410   1_454  A
C118        C517   1.409   1_556  A
C118        H119   1.082       .  S
H120        C515   1.082       .  S
C121        C122   1.344       .  D
C121        H123   1.086       .  S
C122        H124   1.080   1_554  S
C125        C126   1.339       .  D
C125        H127   1.087       .  S
C126        H128   1.085       .  S
C129        C130   1.338       .  D
C129        H131   1.087       .  S
C130        H132   1.086       .  S
C133        C134   1.346   1_556  D
C133        H135   1.083       .  S
C134        H136   1.085       .  S
C137        C138   1.336       .  D
C137        H139   1.087       .  S
C138        H140   1.085       .  S
C141        C142   1.344       .  D
C141        H143   1.087       .  S
C142        H144   1.087       .  S
C145        C146   1.345       .  D
C145        H147   1.086       .  S
C146        H148   1.085       .  S
C149        C150   1.345       .  D
C149        H151   1.087       .  S
C150        H152   1.086       .  S
C153        C154   1.346       .  D
C153        H155   1.086       .  S
C154        H156   1.087       .  S
C157        C158   1.342       .  D
C157        H159   1.086       .  S
C158        H160   1.087       .  S
C161        C162   1.346       .  D
C161        H163   1.087       .  S
C162        H164   1.086       .  S
C165        C166   1.348       .  D
C165        H367   1.086       .  S
C166        H168   1.086       .  S
H167        C365   1.086       .  S
C169        C170   1.340       .  D
C169        H171   1.087       .  S
C170        H172   1.087       .  S
C173        C174   1.344       .  D
C173        H175   1.085       .  S
C174        H176   1.087       .  S
C177        C178   1.348       .  D
C177        H179   1.087       .  S
C178        H180   1.086       .  S
C181        C182   1.345       .  D
C181        H183   1.087       .  S
C182        H184   1.086       .  S
C185        C186   1.341       .  D
C185        H187   1.087       .  S
C186        H188   1.086       .  S
C189        C190   1.344       .  D
C189        H191   1.087       .  S
C190        H192   1.086       .  S
C193        C194   1.348       .  D
C193        H195   1.086       .  S
C194        H196   1.084       .  S
C197        C198   1.338       .  D
C197        H199   1.086       .  S
C198        H200   1.087       .  S
In201       O203   2.210       .  S
In201       O204   2.276       .  S
In201       O212   2.240       .  S
In201       O208   2.250       .  S
In201       O209   2.249       .  S
In201       O210   2.214       .  S
In201       O213   2.219       .  S
C202        O208   1.262       .  A
C202        O210   1.261       .  A
C202        C397   1.465       .  S
O203        C211   1.256       .  A
O204        C211   1.265       .  A
C205        O206   1.262       .  A
C205        C385   1.472       .  S
C207        O209   1.265       .  A
C207        O213   1.262       .  A
C207        C394   1.471       .  S
C211        C389   1.469       .  S
In214       O216   2.243       .  S
In214       O217   2.225       .  S
In214       O225   2.253       .  S
In214       O219   2.256       .  S
In214       O221   2.268       .  S
In214       O222   2.261       .  S
In214       O223   2.243       .  S
In214       O226   2.247       .  S
C215        O221   1.262       .  A
C215        O223   1.258       .  A
C215        C378   1.478       .  S
O216        C224   1.263       .  A
O217        C224   1.260       .  A
C218        O225   1.258       .  A
C218        O219   1.261       .  A
C218        C373   1.477       .  S
C220        O222   1.258       .  A
C220        O226   1.260       .  A
C220        C382   1.477       .  S
C224        C398   1.463       .  S
In227       O230   2.240       .  S
In227       O235   2.279       .  S
In227       O236   2.239       .  S
In227       O239   2.242       .  S
C228        O236   1.260       .  A
C228        C369   1.470       .  S
O229        C237   1.262   1_565  A
C231        O238   1.260       .  A
C231        O232   1.260       .  A
C231        C358   1.469       .  S
C233        O235   1.262       .  A
C233        O239   1.257       .  A
C233        C362   1.483       .  S
C237        C365   1.478       .  S
In240       O242   2.248       .  S
In240       O243   2.276       .  S
In240       O251   2.275       .  S
In240       O245   2.251       .  S
In240       O247   2.272       .  S
In240       O248   2.240       .  S
In240       O249   2.250       .  S
In240       O252   2.237       .  S
C241        O247   1.259       .  A
C241        O249   1.255       .  A
C241        C350   1.475       .  S
O242        C250   1.257       .  A
O243        C250   1.258       .  A
C244        O251   1.263       .  A
C244        O245   1.258       .  A
C244        C346   1.482       .  S
C246        O248   1.262       .  A
C246        O252   1.264       .  A
C246        C370   1.470       .  S
C250        C354   1.476       .  S
C253        C345   1.503       .  S
C253        C658   1.408   1_455  A
C254        C393   1.489       .  S
C254        C255   1.406   1_455  A
C255        C656   1.402       .  A
C255        H260   1.083       .  S
C256        C374   1.492       .  S
C256        C655   1.401       .  A
C256        C257   1.420       .  A
C257        C366   1.494       .  S
C258        C653   1.408       .  A
C258        H259   1.081       .  S
In261       O263   2.230       .  S
In261       O264   2.279       .  S
In261       O272   2.253       .  S
In261       O266   2.246       .  S
In261       O268   2.249       .  S
In261       O269   2.260       .  S
In261       O270   2.221       .  S
In261       O273   2.226       .  S
C262        O268   1.265       .  A
C262        O270   1.262       .  A
C262        C341   1.467       .  S
O263        C271   1.258       .  A
O264        C271   1.264       .  A
C265        O272   1.261       .  A
C265        O266   1.261       .  A
C265        C377   1.475       .  S
C267        O269   1.266       .  A
C267        O273   1.259       .  A
C267        C338   1.467       .  S
C271        C353   1.481       .  S
In274       O276   2.226       .  S
In274       O277   2.251       .  S
In274       O285   2.277   1_556  S
In274       O279   2.239       .  S
In274       O281   2.259       .  S
In274       O282   2.269   1_556  S
In274       O283   2.236       .  S
In274       O286   2.236   1_556  S
C275        O281   1.261       .  A
C275        O283   1.257       .  A
C275        C386   1.472       .  S
O276        C284   1.258       .  A
O277        C284   1.263       .  A
C278        O285   1.263   1_556  A
C278        O279   1.257       .  A
C278        C333   1.476       .  S
C280        O282   1.264       .  A
C280        O286   1.261       .  A
C280        C361   1.478       .  S
C284        C342   1.468       .  S
In287       O289   2.218       .  S
In287       O290   2.273       .  S
In287       O298   2.242       .  S
In287       O292   2.245       .  S
In287       O294   2.255       .  S
In287       O295   2.264       .  S
In287       O296   2.208       .  S
In287       O299   2.220       .  S
C288        O294   1.266       .  A
C288        O296   1.262       .  A
C288        C330   1.466       .  S
O289        C297   1.255       .  A
O290        C297   1.266       .  A
C291        O298   1.261       .  A
C291        O292   1.263       .  A
C291        C349   1.474       .  S
C293        O295   1.268       .  A
C293        O299   1.260       .  A
C293        C381   1.473       .  S
C297        C326   1.468       .  S
In300       O302   2.226   1_554  S
In300       O303   2.266       .  S
In300       O311   2.236       .  S
In300       O305   2.251       .  S
In300       O307   2.251       .  S
In300       O308   2.250       .  S
In300       O309   2.224       .  S
In300       O312   2.225       .  S
C301        O307   1.264       .  A
C301        O309   1.261       .  A
C301        C357   1.471       .  S
O302        C310   1.260       .  A
O303        C310   1.261   1_554  A
C304        O311   1.261       .  A
C304        O305   1.260       .  A
C304        C321   1.473       .  S
C306        O308   1.264       .  A
C306        O312   1.258       .  A
C306        C329   1.464       .  S
C310        C390   1.477       .  S
C313        C337   1.486       .  S
C313        C314   1.419   1_556  A
C313        C318   1.400       .  A
C314        C322   1.492       .  S
C314        C315   1.407       .  A
C315        C716   1.401       .  A
C315        H720   1.084       .  S
C316        C325   1.489       .  S
C316        C715   1.403   1_455  A
C316        C317   1.423       .  A
C317        C334   1.503       .  S
C317        C718   1.409   1_454  A
C318        C717   1.410   1_556  A
C318        H319   1.081       .  S
H320        C715   1.083       .  S
C321        C322   1.345       .  D
C321        H323   1.085       .  S
C322        H324   1.079   1_554  S
C325        C326   1.339       .  D
C325        H327   1.087       .  S
C326        H328   1.086       .  S
C329        C330   1.338       .  D
C329        H331   1.088       .  S
C330        H332   1.086       .  S
C333        C334   1.347   1_556  D
C333        H335   1.083       .  S
C334        H336   1.086       .  S
C337        C338   1.337       .  D
C337        H339   1.087       .  S
C338        H340   1.085       .  S
C341        C342   1.343       .  D
C341        H343   1.087       .  S
C342        H344   1.087       .  S
C345        C346   1.347       .  D
C345        H347   1.087       .  S
C346        H348   1.085       .  S
C349        C350   1.345       .  D
C349        H351   1.087       .  S
C350        H352   1.086       .  S
C353        C354   1.347       .  D
C353        H355   1.086       .  S
C354        H356   1.087       .  S
C357        C358   1.343       .  D
C357        H359   1.086       .  S
C358        H360   1.087       .  S
C361        C362   1.347       .  D
C361        H363   1.087       .  S
C362        H364   1.086       .  S
C365        C366   1.348   1_545  D
C366        H368   1.086       .  S
C369        C370   1.341       .  D
C369        H371   1.087       .  S
C370        H372   1.087       .  S
C373        C374   1.344       .  D
C373        H375   1.085       .  S
C374        H376   1.087       .  S
C377        C378   1.346       .  D
C377        H379   1.087       .  S
C378        H380   1.086       .  S
C381        C382   1.341       .  D
C381        H383   1.087       .  S
C382        H384   1.086       .  S
C385        C386   1.344       .  D
C385        H387   1.087       .  S
C386        H388   1.086       .  S
C389        C390   1.341       .  D
C389        H391   1.087       .  S
C390        H392   1.086       .  S
C393        C394   1.345       .  D
C393        H395   1.086   1_565  S
C394        H396   1.084       .  S
C397        C398   1.338       .  D
C397        H399   1.087       .  S
C398        H400   1.088       .  S
In401       O403   2.216       .  S
In401       O404   2.263       .  S
In401       O412   2.231       .  S
In401       O606   2.228       .  S
In401       O408   2.259       .  S
In401       O409   2.260       .  S
In401       O410   2.215       .  S
In401       O413   2.203       .  S
C402        O408   1.260       .  A
C402        O410   1.259       .  A
C402        C597   1.464       .  S
O403        C411   1.261       .  A
O404        C411   1.267       .  A
C405        O612   1.263       .  A
C405        O406   1.265       .  A
C405        C585   1.466       .  S
O406       In601   2.230   1_545  S
C407        O409   1.265       .  A
C407        O413   1.259       .  A
C407        C594   1.471       .  S
C411        C589   1.472       .  S
O412        C605   1.263       .  A
In414       O416   2.210       .  S
In414       O417   2.245       .  S
In414       O425   2.251       .  S
In414       O419   2.262       .  S
In414       O421   2.264       .  S
In414       O422   2.261       .  S
In414       O423   2.236       .  S
In414       O426   2.230       .  S
C415        O421   1.268       .  A
C415        O423   1.262       .  A
C415        C578   1.481       .  S
O416        C424   1.259       .  A
O417        C424   1.268       .  A
C418        O425   1.260       .  A
C418        O419   1.266       .  A
C418        C573   1.484       .  S
C420        O422   1.263       .  A
C420        O426   1.262       .  A
C420        C582   1.479       .  S
C424        C598   1.461       .  S
In427       O629   2.248   1_545  S
In427       O430   2.235       .  S
In427       O638   2.244   1_545  S
In427       O632   2.247   1_545  S
In427       O634   2.255   1_545  S
In427       O435   2.271       .  S
In427       O436   2.239       .  S
In427       O439   2.241       .  S
C428        O634   1.261   1_545  A
C428        O436   1.260       .  A
C428        C569   1.471       .  S
O429       In627   2.249       .  S
O429        C437   1.262       .  A
O430        C637   1.263       .  A
C431        O438   1.261       .  A
C431        O432   1.260       .  A
C431        C558   1.468       .  S
O432       In627   2.235       .  S
C433        O435   1.262       .  A
C433        O439   1.258       .  A
C433        C562   1.480       .  S
O434       In627   2.253       .  S
O434        C628   1.260       .  A
C437        O630   1.264       .  A
C437        C565   1.475       .  S
O438       In627   2.248       .  S
In440       O442   2.242       .  S
In440       O443   2.278       .  S
In440       O451   2.281       .  S
In440       O445   2.250       .  S
In440       O447   2.266       .  S
In440       O448   2.240       .  S
In440       O449   2.249       .  S
In440       O452   2.236       .  S
C441        O447   1.260       .  A
C441        O449   1.257       .  A
C441        C550   1.475       .  S
O442        C450   1.256       .  A
O443        C450   1.259       .  A
C444        O451   1.262       .  A
C444        O445   1.258       .  A
C444        C546   1.482       .  S
C446        O448   1.262       .  A
C446        O452   1.263       .  A
C446        C570   1.470       .  S
C450        C554   1.474       .  S
C453        C545   1.503   1_565  S
C453        C654   1.421       .  A
C454        C593   1.488       .  S
C454        C653   1.419       .  A
C454        C455   1.407       .  A
C455        H460   1.082       .  S
C456        C574   1.495       .  S
C456        C457   1.422       .  A
C457        C566   1.494       .  S
C457        C658   1.413       .  A
C458        C657   1.409       .  A
C458        H459   1.082   1_565  S
In461       O463   2.222       .  S
In461       O464   2.282       .  S
In461       O472   2.258       .  S
In461       O466   2.253       .  S
In461       O468   2.254       .  S
In461       O469   2.257       .  S
In461       O470   2.228       .  S
In461       O473   2.226       .  S
C462        O468   1.265       .  A
C462        O470   1.262       .  A
C462        C541   1.471       .  S
O463        C471   1.258       .  A
O464        C471   1.265       .  A
C465        O472   1.260       .  A
C465        O466   1.262       .  A
C465        C577   1.479       .  S
C467        O469   1.268       .  A
C467        O473   1.260       .  A
C467        C538   1.471       .  S
C471        C553   1.481       .  S
In474       O476   2.232   1_554  S
In474       O477   2.251       .  S
In474       O485   2.266       .  S
In474       O479   2.230   1_554  S
In474       O481   2.258   1_554  S
In474       O482   2.263       .  S
In474       O483   2.225   1_554  S
In474       O486   2.234       .  S
C475        O481   1.261       .  A
C475        O483   1.257       .  A
C475        C586   1.468       .  S
O476        C484   1.259       .  A
O477        C484   1.264   1_554  A
C478        O485   1.263   1_556  A
C478        O479   1.258       .  A
C478        C533   1.471       .  S
C480        O482   1.264       .  A
C480        O486   1.260       .  A
C480        C561   1.476       .  S
C484        C542   1.471       .  S
In487       O489   2.204       .  S
In487       O490   2.270       .  S
In487       O498   2.241       .  S
In487       O492   2.245       .  S
In487       O494   2.258       .  S
In487       O495   2.267       .  S
In487       O496   2.206       .  S
In487       O499   2.216       .  S
C488        O494   1.267       .  A
C488        O496   1.263       .  A
C488        C530   1.471       .  S
O489        C497   1.256       .  A
O490        C497   1.268       .  A
C491        O498   1.262       .  A
C491        O492   1.263       .  A
C491        C549   1.474       .  S
C493        O495   1.269       .  A
C493        O499   1.261       .  A
C493        C581   1.474       .  S
C497        C526   1.464       .  S
In500       O502   2.223   1_554  S
In500       O503   2.262   1_554  S
In500       O511   2.272       .  S
In500       O505   2.235       .  S
In500       O507   2.257       .  S
In500       O508   2.280       .  S
In500       O509   2.217       .  S
In500       O512   2.207       .  S
C501        O507   1.266       .  A
C501        O509   1.261       .  A
C501        C557   1.472       .  S
O502        C510   1.262       .  A
O503        C510   1.265       .  A
C504        O511   1.260       .  A
C504        O505   1.256       .  A
C504        C521   1.471       .  S
C506        O508   1.266       .  A
C506        O512   1.253       .  A
C506        C529   1.464       .  S
C510        C590   1.478       .  S
C513        C537   1.493       .  S
C513        C514   1.423   1_556  A
C513        C518   1.404       .  A
C514        C522   1.498       .  S
C514        C515   1.411   1_655  A
C516        C525   1.487       .  S
C516        C517   1.422       .  A
C517        C534   1.499       .  S
C518        H519   1.082       .  S
C521        C522   1.347       .  D
C521        H523   1.083       .  S
C522        H524   1.085   1_554  S
C525        C526   1.337       .  D
C525        H527   1.087       .  S
C526        H528   1.086       .  S
C529        C530   1.337       .  D
C529        H531   1.088       .  S
C530        H532   1.086       .  S
C533        C534   1.345   1_556  D
C533        H535   1.083       .  S
C534        H536   1.086       .  S
C537        C538   1.340       .  D
C537        H539   1.088       .  S
C538        H540   1.084       .  S
C541        C542   1.344       .  D
C541        H543   1.086       .  S
C542        H544   1.087       .  S
C545        C546   1.349       .  D
C545        H547   1.086       .  S
C546        H548   1.085       .  S
C549        C550   1.345       .  D
C549        H551   1.087       .  S
C550        H552   1.086       .  S
C553        C554   1.347       .  D
C553        H555   1.086       .  S
C554        H556   1.087       .  S
C557        C558   1.344       .  D
C557        H559   1.086       .  S
C558        H560   1.087       .  S
C561        C562   1.346       .  D
C561        H563   1.087       .  S
C562        H564   1.086       .  S
C565        C566   1.350       .  D
C565        H767   1.085       .  S
C566        H568   1.085       .  S
H567        C765   1.086       .  S
C569        C570   1.341       .  D
C569        H571   1.087       .  S
C570        H572   1.087       .  S
C573        C574   1.344       .  D
C573        H575   1.085       .  S
C574        H576   1.087       .  S
C577        C578   1.349       .  D
C577        H579   1.087       .  S
C578        H580   1.086       .  S
C581        C582   1.343       .  D
C581        H583   1.087       .  S
C582        H584   1.086       .  S
C585        C586   1.343       .  D
C585        H587   1.087       .  S
C586        H588   1.086       .  S
C589        C590   1.343       .  D
C589        H591   1.087       .  S
C590        H592   1.086       .  S
C593        C594   1.348       .  D
C593        H595   1.086       .  S
C594        H596   1.084       .  S
C597        C598   1.335       .  D
C597        H599   1.086       .  S
C598        H600   1.088       .  S
In601       O603   2.205       .  S
In601       O604   2.276       .  S
In601       O612   2.224   1_565  S
In601       O608   2.253       .  S
In601       O609   2.242       .  S
In601       O610   2.201       .  S
In601       O613   2.221   1_565  S
C602        O608   1.265       .  A
C602        O610   1.261       .  A
C602        C797   1.467       .  S
O603        C611   1.257       .  A
O604        C611   1.268       .  A
C605        O606   1.262       .  A
C605        C785   1.465       .  S
C607        O609   1.269       .  A
C607        O613   1.262   1_565  A
C607        C794   1.470       .  S
C611        C789   1.470       .  S
In614       O616   2.244       .  S
In614       O617   2.226       .  S
In614       O625   2.249       .  S
In614       O619   2.258       .  S
In614       O621   2.270       .  S
In614       O622   2.259       .  S
In614       O623   2.251       .  S
In614       O626   2.248       .  S
C615        O621   1.262       .  A
C615        O623   1.259       .  A
C615        C778   1.482       .  S
O616        C624   1.263       .  A
O617        C624   1.260       .  A
C618        O625   1.258       .  A
C618        O619   1.262       .  A
C618        C773   1.476       .  S
C620        O622   1.258       .  A
C620        O626   1.260       .  A
C620        C782   1.477       .  S
C624        C798   1.464       .  S
In627       O630   2.245       .  S
In627       O635   2.278       .  S
In627       O636   2.237       .  S
In627       O639   2.236       .  S
C628        O636   1.261       .  A
C628        C769   1.472       .  S
O629        C637   1.263   1_565  A
C631        O638   1.260       .  A
C631        O632   1.261       .  A
C631        C758   1.472       .  S
C633        O635   1.263       .  A
C633        O639   1.258       .  A
C633        C762   1.482       .  S
C637        C765   1.472       .  S
In640       O642   2.243       .  S
In640       O643   2.275       .  S
In640       O651   2.279       .  S
In640       O645   2.255       .  S
In640       O647   2.272       .  S
In640       O648   2.236       .  S
In640       O649   2.244       .  S
In640       O652   2.249       .  S
C641        O647   1.261       .  A
C641        O649   1.256       .  A
C641        C750   1.476       .  S
O642        C650   1.257       .  A
O643        C650   1.259       .  A
C644        O651   1.262       .  A
C644        O645   1.259       .  A
C644        C746   1.485       .  S
C646        O648   1.261       .  A
C646        O652   1.264       .  A
C646        C770   1.471       .  S
C650        C754   1.476       .  S
C653        C745   1.506       .  S
C654        C793   1.486       .  S
C654        C655   1.401       .  A
C655        H660   1.084       .  S
C656        C774   1.491       .  S
C656        C657   1.419       .  A
C657        C766   1.489       .  S
C658        H659   1.081       .  S
In661       O663   2.231       .  S
In661       O664   2.283       .  S
In661       O672   2.266       .  S
In661       O666   2.250       .  S
In661       O668   2.250       .  S
In661       O669   2.265       .  S
In661       O670   2.224       .  S
In661       O673   2.227       .  S
C662        O668   1.265       .  A
C662        O670   1.262       .  A
C662        C741   1.468       .  S
O663        C671   1.257       .  A
O664        C671   1.264       .  A
C665        O672   1.261       .  A
C665        O666   1.260       .  A
C665        C777   1.479       .  S
C667        O669   1.267       .  A
C667        O673   1.259       .  A
C667        C738   1.469       .  S
C671        C753   1.483       .  S
In674       O676   2.234       .  S
In674       O677   2.249       .  S
In674       O685   2.267   1_556  S
In674       O679   2.231       .  S
In674       O681   2.261       .  S
In674       O682   2.264   1_556  S
In674       O683   2.226       .  S
In674       O686   2.236   1_556  S
C675        O681   1.260       .  A
C675        O683   1.257       .  A
C675        C786   1.469       .  S
O676        C684   1.259       .  A
O677        C684   1.263       .  A
C678        O685   1.263   1_556  A
C678        O679   1.257       .  A
C678        C733   1.472       .  S
C680        O682   1.263       .  A
C680        O686   1.261       .  A
C680        C761   1.476       .  S
C684        C742   1.469       .  S
In687       O689   2.208       .  S
In687       O690   2.258       .  S
In687       O698   2.237       .  S
In687       O692   2.242       .  S
In687       O694   2.254       .  S
In687       O695   2.259       .  S
In687       O696   2.208       .  S
In687       O699   2.222       .  S
C688        O694   1.267       .  A
C688        O696   1.263       .  A
C688        C730   1.468       .  S
O689        C697   1.258       .  A
O690        C697   1.268       .  A
C691        O698   1.262       .  A
C691        O692   1.265       .  A
C691        C749   1.473       .  S
C693        O695   1.269       .  A
C693        O699   1.261       .  A
C693        C781   1.474       .  S
C697        C726   1.463       .  S
In700       O702   2.223   1_554  S
In700       O703   2.270   1_554  S
In700       O711   2.248       .  S
In700       O705   2.251       .  S
In700       O707   2.256       .  S
In700       O708   2.259       .  S
In700       O709   2.229       .  S
In700       O712   2.211       .  S
C701        O707   1.265       .  A
C701        O709   1.261       .  A
C701        C757   1.473       .  S
O702        C710   1.260       .  A
O703        C710   1.261       .  A
C704        O711   1.262       .  A
C704        O705   1.260       .  A
C704        C721   1.477       .  S
C706        O708   1.266       .  A
C706        O712   1.257       .  A
C706        C729   1.463       .  S
C710        C790   1.478       .  S
C713        C737   1.486       .  S
C713        C714   1.420   1_556  A
C713        C718   1.401       .  A
C714        C722   1.498       .  S
C714        C715   1.409       .  A
C716        C725   1.486       .  S
C716        C717   1.421       .  A
C717        C734   1.500       .  S
C718        H719   1.082       .  S
C721        C722   1.347       .  D
C721        H723   1.085       .  S
C722        H724   1.080   1_554  S
C725        C726   1.338       .  D
C725        H727   1.087       .  S
C726        H728   1.085       .  S
C729        C730   1.336       .  D
C729        H731   1.088       .  S
C730        H732   1.086       .  S
C733        C734   1.346   1_556  D
C733        H735   1.082       .  S
C734        H736   1.086       .  S
C737        C738   1.337       .  D
C737        H739   1.087       .  S
C738        H740   1.086       .  S
C741        C742   1.343       .  D
C741        H743   1.086       .  S
C742        H744   1.087       .  S
C745        C746   1.349       .  D
C745        H747   1.086       .  S
C746        H748   1.085       .  S
C749        C750   1.346       .  D
C749        H751   1.087       .  S
C750        H752   1.086       .  S
C753        C754   1.348       .  D
C753        H755   1.086       .  S
C754        H756   1.087       .  S
C757        C758   1.345       .  D
C757        H759   1.086       .  S
C758        H760   1.087       .  S
C761        C762   1.347       .  D
C761        H763   1.087       .  S
C762        H764   1.086       .  S
C765        C766   1.346   1_545  D
C766        H768   1.086       .  S
C769        C770   1.341       .  D
C769        H771   1.087       .  S
C770        H772   1.087       .  S
C773        C774   1.343       .  D
C773        H775   1.085       .  S
C774        H776   1.087       .  S
C777        C778   1.347       .  D
C777        H779   1.087       .  S
C778        H780   1.086       .  S
C781        C782   1.341       .  D
C781        H783   1.087       .  S
C782        H784   1.086       .  S
C785        C786   1.342       .  D
C785        H787   1.087       .  S
C786        H788   1.086       .  S
C789        C790   1.342       .  D
C789        H791   1.087       .  S
C790        H792   1.086       .  S
C793        C794   1.340       .  D
C793        H795   1.087       .  S
C794        H796   1.086   1_565  S
C797        C798   1.340       .  D
C797        H799   1.087       .  S
C798        H800   1.088       .  S
