geometry optimzed in LAMMPS
_audit_creation_date              2020-12-01 
_audit_creation_method            'lammps2cif' 
_symmetry_space_group_name_H-M    'P1' 
_symmetry_Int_Tables_number       1 
_symmetry_cell_setting            triclinic 
loop_ 
_symmetry_equiv_pos_as_xyz 
  x,y,z 
_cell_length_a                    26.97739362 
_cell_length_b                    26.97620810514174 
_cell_length_c                    24.139197237727625 
_cell_angle_alpha                 89.99237506240016 
_cell_angle_beta                  90.00602496788433 
_cell_angle_gamma                 120.01291308759276 
loop_ 
_atom_site_label 
_atom_site_type_symbol 
_atom_site_fract_x 
_atom_site_fract_y 
_atom_site_fract_z 
_atom_site_charge 
C1          C  0.05179940  0.00148873  0.98884398     0.79700
N2          N  0.00141318  0.45060583  0.98927145    -0.78600
C3          C  0.45020907  0.44933984  0.98891995     0.82200
N4          N  0.44971213  0.49970998  0.98926195    -0.78500
C5          C  0.49967615  0.05093007  0.98882588     0.82200
N6          N  0.05054916  0.05143870  0.98918335    -0.80300
C7          C  0.21757429  0.33360352  0.66688739     0.79700
N8          N  0.16686058  0.28341157  0.66685493    -0.78600
C9          C  0.11649804  0.28357842  0.66682278     0.82200
N10         N  0.11702874  0.33428717  0.66687324    -0.78500
C11         C  0.16756917  0.38465944  0.66690329     0.82200
N12         N  0.21775404  0.38414322  0.66693612    -0.80300
C13         C  0.33376700  0.21825416  0.33328162     0.79700
N14         N  0.28327954  0.16715194  0.33329209    -0.78600
C15         C  0.28275340  0.11609960  0.33326783     0.82200
N16         N  0.33384544  0.11671525  0.33328970    -0.78500
C17         C  0.38490389  0.16725366  0.33328253     0.82200
N18         N  0.38429935  0.21773999  0.33330546    -0.80300
C19         C  0.31217019  0.33308004  0.04571575     0.79700
N20         N  0.29507967  0.29230150  0.00599371    -0.78600
C21         C  0.32797551  0.30201053  0.96030052     0.82200
N22         N  0.37916384  0.35196989  0.95543883    -0.78500
C23         C  0.39559800  0.39391192  0.99413783     0.82200
N24         N  0.36147373  0.38420861  0.03877006    -0.80300
C25         C  0.33853299  0.31462104  0.71250530     0.79700
N26         N  0.37369682  0.33331743  0.66745037    -0.78600
C27         C  0.35754812  0.35193170  0.62212105     0.82200
N28         N  0.30718447  0.35236497  0.62273598    -0.78500
C29         C  0.27200962  0.33324658  0.66697966     0.82200
N30         N  0.28773018  0.31413020  0.71145434    -0.80300
C31         C  0.30535611  0.33694099  0.29401878     0.79700
N32         N  0.33367556  0.37581264  0.33407517    -0.78600
C33         C  0.36200557  0.36489307  0.37384533     0.82200
N34         N  0.36404041  0.31512035  0.37235794    -0.78500
C35         C  0.33373006  0.27415528  0.33351392     0.82200
N36         N  0.30337667  0.28512230  0.29495341    -0.80300
C37         C  0.16801939  0.47968466  0.04561236     0.79700
N38         N  0.11690826  0.47787571  0.03867741    -0.78600
C39         C  0.10721657  0.00229637  0.99403430     0.82200
N40         N  0.14913994  0.02777400  0.95530746    -0.78500
C41         C  0.19907738  0.02651647  0.96015723     0.82200
N42         N  0.20878520  0.00333882  0.00586112    -0.80300
C43         C  0.00330507  0.13900567  0.37380697     0.79700
N44         N  0.45150113  0.13697995  0.37234551    -0.78600
C45         C  0.44083861  0.16728831  0.33350409     0.82200
N46         N  0.98213984  0.19762045  0.29491884    -0.78500
C47         C  0.03196749  0.19562812  0.29395903     0.82200
N48         N  0.04253350  0.16731787  0.33401275    -0.80300
C49         C  0.13611516  0.49767304  0.37381978     0.79700
N50         N  0.18588520  0.04948706  0.37233436    -0.78600
C51         C  0.22684611  0.06015758  0.33348983     0.82200
N52         N  0.21587096  0.51885477  0.29491258    -0.78500
C53         C  0.16404075  0.46901503  0.29396310     0.82200
N54         N  0.12517335  0.45843922  0.33402732    -0.80300
O55         O  0.21730830  0.30721981  0.25421902    -0.79000
C56         C  0.15414001  0.42228466  0.25666303     0.82000
O57         O  0.11009345  0.21608704  0.23086500    -0.80100
O58         O  0.04377991  0.26397582  0.11314516    -0.81600
O59         O  0.22068004  0.45729864  0.11317084    -0.81400
O60         O  0.28493295  0.39462631  0.23089924    -0.80000
Zn61       Zn  0.16712887  0.33387237  0.23109327     1.55700
O62         O  0.12525792  0.40118796  0.10150474    -0.81400
Cd63       Cd  0.24012323  0.39986297  0.15793782     1.59700
Cd64       Cd  0.16017935  0.26095175  0.15794344     1.59600
O65         O  0.27641695  0.37582879  0.10157946    -0.81400
O66         O  0.16716731  0.33389811  0.15908321    -1.91900
Cd67       Cd  0.10120376  0.34087291  0.15788669     1.59900
O68         O  0.23709010  0.28040597  0.11324839    -0.81400
O69         O  0.10638362  0.39091445  0.23081907    -0.80000
C70         C  0.07869974  0.23246319  0.25665412     0.82500
C71         C  0.26852709  0.34685162  0.25671866     0.82200
O72         O  0.19376887  0.41070791  0.25418863    -0.79000
C73         C  0.17262800  0.44527897  0.08985400     0.83000
O74         O  0.09026668  0.28366937  0.25413221    -0.79100
C75         C  0.27314019  0.32846416  0.08994020     0.83100
C76         C  0.05580936  0.22794715  0.08985629     0.83400
O77         O  0.09988897  0.22467644  0.10154204    -0.81500
C78         C  0.02143309  0.18893749  0.04560222     0.79700
N79         N  0.02326729  0.13965055  0.03865749    -0.78600
C80         C  0.49887189  0.10554129  0.99400900     0.82200
N81         N  0.47337230  0.12197322  0.95529310    -0.78500
C82         C  0.47460203  0.17315534  0.96015766     0.82200
N83         N  0.49776572  0.20603199  0.00586664    -0.80300
C84         C  0.14915775  0.00627731  0.62215770     0.79700
N85         N  0.14876779  0.45549703  0.62277679    -0.78600
C86         C  0.16792364  0.43945357  0.66700248     0.82200
N87         N  0.18702387  0.97428468  0.71146253    -0.78500
C88         C  0.18650324  0.02458343  0.71252851     0.82200
N89         N  0.16777547  0.04104073  0.66748662    -0.80300
C90         C  0.49483926  0.14355833  0.62206453     0.79700
N91         N  0.04564566  0.19393655  0.62267574    -0.78600
C92         C  0.06169340  0.22913494  0.66690057     0.82200
N93         N  0.52684400  0.21342188  0.71136048    -0.78500
C94         C  0.47652544  0.16260839  0.71242011     0.82200
N95         N  0.46006068  0.12741903  0.66738301    -0.80300
O96         O  0.38650231  0.14472410  0.92276180    -0.79000
C97         C  0.31686496  0.25417712  0.92435735     0.82000
O98         O  0.27746673  0.04672666  0.89729996    -0.80100
O99         O  0.20929644  0.10166635  0.77828264    -0.81600
O100        O  0.39286010  0.29183859  0.77821497    -0.81400
O101        O  0.45441720  0.23135128  0.89729354    -0.80000
Zn102      Zn  0.33389344  0.16725587  0.89966864     1.55700
O103        O  0.29717461  0.23728448  0.76898946    -0.81400
Cd104      Cd  0.40780892  0.23251756  0.82448111     1.59700
Cd105      Cd  0.32522356  0.09337920  0.82449508     1.59600
O106        O  0.44055823  0.20396879  0.76888170    -0.81400
O107        O  0.33389315  0.16728822  0.82827217    -1.91900
Cd108      Cd  0.26864302  0.17593831  0.82455500     1.59600
O109        O  0.39944848  0.10829473  0.77818002    -0.81400
O110        O  0.26978292  0.22364664  0.89740669    -0.80000
C111        C  0.24692424  0.06325958  0.92423252     0.82500
C112        C  0.43786511  0.18426110  0.92423289     0.82200
O113        O  0.35640887  0.24237772  0.92284382    -0.79000
C114        C  0.34471576  0.28043522  0.75589825     0.83000
O115        O  0.25874798  0.11461610  0.92275177    -0.79100
C116        C  0.43616474  0.15642845  0.75581504     0.83100
C117        C  0.22070918  0.06496313  0.75590816     0.83400
O118        O  0.26388306  0.06060681  0.76893931    -0.81500
O119        O  0.97380566  0.05082683  0.41327796    -0.79000
C120        C  0.08978005  0.48800265  0.41146931     0.82000
O121        O  0.38174849  0.44168856  0.43814471    -0.80100
O122        O  0.43548469  0.37587602  0.55680326    -0.81600
O123        O  0.12519411  0.06024876  0.55681428    -0.81400
O124        O  0.06037556  0.11931518  0.43814072    -0.80000
Zn125      Zn  0.00048807  0.00052885  0.43620609     1.55700
O126        O  0.07108579  0.96460494  0.56680424    -0.81400
Cd127      Cd  0.06485727  0.07458067  0.51107733     1.59700
Cd128      Cd  0.42652323  0.49090662  0.51105948     1.59600
O129        O  0.53648573  0.10712699  0.56674784    -0.81400
O130        O  0.00051605  0.00056514  0.50806261    -1.91900
Cd131      Cd  0.01019005  0.43622300  0.51111882     1.59900
O132        O  0.44085320  0.06560182  0.55674111    -0.81400
O133        O  0.05936885  0.44063713  0.43819055    -0.80000
C134        C  0.39868263  0.41124087  0.41148783     0.82500
C135        C  0.01299340  0.10234076  0.41144963     0.82200
O136        O  0.07748271  0.52720053  0.41328716    -0.79000
C137        C  0.11428988  0.01229455  0.57933554     0.83000
O138        O  0.45017390  0.42352224  0.41335409    -0.79100
C139        C  0.48880815  0.10265665  0.57926015     0.83100
C140        C  0.39843702  0.38678370  0.57929562     0.83400
O141        O  0.39397300  0.42998902  0.56674712    -0.81500
C142        C  0.05178853  0.50148375  0.98884591     0.79700
N143        N  0.00142304  0.95061178  0.98927138    -0.78600
C144        C  0.45021989  0.94934768  0.98891919     0.82200
N145        N  0.44972453  0.99971827  0.98925813    -0.78500
C146        C  0.49966326  0.55092267  0.98883162     0.82200
N147        N  0.05053660  0.55143252  0.98918804    -0.80300
C148        C  0.21756730  0.83360435  0.66689355     0.79700
N149        N  0.16685433  0.78341176  0.66686610    -0.78600
C150        C  0.11649104  0.78357712  0.66682791     0.82200
N151        N  0.11701997  0.83428503  0.66686762    -0.78500
C152        C  0.16755957  0.88465807  0.66689249     0.82200
N153        N  0.21774533  0.88414330  0.66693097    -0.80300
C154        C  0.33377670  0.71825141  0.33328521     0.79700
N155        N  0.28329096  0.66714798  0.33329499    -0.78600
C156        C  0.28276709  0.61609695  0.33327287     0.82200
N157        N  0.33386043  0.61671480  0.33329831    -0.78500
C158        C  0.38491801  0.66725469  0.33329195     0.82200
N159        N  0.38431063  0.71773987  0.33331223    -0.80300
C160        C  0.31218363  0.83308962  0.04572073     0.79700
N161        N  0.29508785  0.79231393  0.00599589    -0.78600
C162        C  0.32797843  0.80202416  0.96029886     0.82200
N163        N  0.37916786  0.85198211  0.95543602    -0.78500
C164        C  0.39560783  0.89392148  0.99413840     0.82200
N165        N  0.36148824  0.88421744  0.03877471    -0.80300
C166        C  0.33852821  0.81462268  0.71251019     0.79700
N167        N  0.37369195  0.83332122  0.66745501    -0.78600
C168        C  0.35754242  0.85193638  0.62212679     0.82200
N169        N  0.30717868  0.85236925  0.62274326    -0.78500
C170        C  0.27200371  0.83324885  0.66698668     0.82200
N171        N  0.28772451  0.81413058  0.71146014    -0.80300
C172        C  0.30536129  0.83693543  0.29401948     0.79700
N173        N  0.33367067  0.87580265  0.33408133    -0.78600
C174        C  0.36199472  0.86488152  0.37385583     0.82200
N175        N  0.36403555  0.81511203  0.37236739    -0.78500
C176        C  0.33373521  0.77415048  0.33351734     0.82200
N177        N  0.30338597  0.78511845  0.29495227    -0.80300
C178        C  0.16803034  0.97968621  0.04560703     0.79700
N179        N  0.11692088  0.97788204  0.03867569    -0.78600
C180        C  0.10720661  0.50229440  0.99403823     0.82200
N181        N  0.14913500  0.52778232  0.95531759    -0.78500
C182        C  0.19907436  0.52652921  0.96017096     0.82200
N183        N  0.20877904  0.50334619  0.00587213    -0.80300
C184        C  0.00332570  0.63901595  0.37382138     0.79700
N185        N  0.45152064  0.63698848  0.37235968    -0.78600
C186        C  0.44085481  0.66729213  0.33351526     0.82200
N187        N  0.98215392  0.69762053  0.29492693    -0.78500
C188        C  0.03198241  0.69562965  0.29396704     0.82200
N189        N  0.04255170  0.66732437  0.33402385    -0.80300
C190        C  0.13609976  0.99767414  0.37380974     0.79700
N191        N  0.18590331  0.54948326  0.37234587    -0.78600
C192        C  0.22685974  0.56015488  0.33349591     0.82200
N193        N  0.21586501  0.01885349  0.29491375    -0.78500
C194        C  0.16403786  0.96901072  0.29396510     0.82200
N195        N  0.12516558  0.95843607  0.33402391    -0.80300
O196        O  0.21731628  0.80721701  0.25421655    -0.79000
C197        C  0.15414274  0.92228037  0.25666780     0.82000
O198        O  0.11010787  0.71608830  0.23087038    -0.80100
O199        O  0.04379172  0.76397616  0.11315083    -0.81600
O200        O  0.22069162  0.95730239  0.11316871    -0.81400
O201        O  0.28494147  0.89462529  0.23090295    -0.80000
Zn202      Zn  0.16713788  0.83387235  0.23109448     1.55700
O203        O  0.12526951  0.90119170  0.10150373    -0.81400
Cd204      Cd  0.24013459  0.89986846  0.15794233     1.59700
Cd205      Cd  0.16019160  0.76095389  0.15794627     1.59600
O206        O  0.27643209  0.87583737  0.10158679    -0.81400
O207        O  0.16717938  0.83390142  0.15908413    -1.91900
Cd208      Cd  0.10121639  0.84087580  0.15788632     1.59900
O209        O  0.23710524  0.78041391  0.11325331    -0.81400
O210        O  0.10638871  0.89090960  0.23082073    -0.80000
C211        C  0.07871229  0.73246297  0.25665827     0.82500
C212        C  0.26853499  0.84684803  0.25671788     0.82200
O213        O  0.19377396  0.91070650  0.25419564    -0.79000
C214        C  0.17263949  0.94528220  0.08985129     0.83000
O215        O  0.09027521  0.78366758  0.25413138    -0.79100
C216        C  0.27315577  0.82847327  0.08994688     0.83100
C217        C  0.05581864  0.72794577  0.08986185     0.83400
O218        O  0.09989886  0.72467475  0.10154491    -0.81500
C219        C  0.02143704  0.68893569  0.04561018     0.79700
N220        N  0.02326491  0.63964553  0.03866429    -0.78600
C221        C  0.49886006  0.60553431  0.99401870     0.82200
N222        N  0.47335932  0.62196849  0.95530601    -0.78500
C223        C  0.47459573  0.67315388  0.96017139     0.82200
N224        N  0.49776746  0.70603159  0.00587812    -0.80300
C225        C  0.14916929  0.50628080  0.62217539     0.79700
N226        N  0.14875512  0.95549281  0.62276139    -0.78600
C227        C  0.16791246  0.93945159  0.66698781     0.82200
N228        N  0.18703372  0.47428430  0.71147919    -0.78500
C229        C  0.18651187  0.52458253  0.71254720     0.82200
N230        N  0.16778476  0.54104151  0.66750610    -0.80300
C231        C  0.49483546  0.64355107  0.62207955     0.79700
N232        N  0.04563962  0.69393141  0.62268712    -0.78600
C233        C  0.06168765  0.72913278  0.66690952     0.82200
N234        N  0.52684051  0.71342125  0.71137082    -0.78500
C235        C  0.47652336  0.66260665  0.71243430     0.82200
N236        N  0.46005840  0.62741323  0.66739962    -0.80300
O237        O  0.38649443  0.64473423  0.92278545    -0.79000
C238        C  0.31686659  0.75419010  0.92435783     0.82000
O239        O  0.27747182  0.54674213  0.89732608    -0.80100
O240        O  0.20930114  0.60166663  0.77829702    -0.81600
O241        O  0.39285772  0.79184295  0.77822155    -0.81400
O242        O  0.45441786  0.73135311  0.89730434    -0.80000
Zn243      Zn  0.33388959  0.66726612  0.89968137     1.55700
O244        O  0.29717288  0.73728455  0.76899306    -0.81400
Cd245      Cd  0.40781157  0.73252500  0.82449143     1.59700
Cd246      Cd  0.32522899  0.59338680  0.82451932     1.59600
O247        O  0.44055687  0.70397137  0.76889186    -0.81400
O248        O  0.33389625  0.66729528  0.82828486    -1.91900
Cd249      Cd  0.26864489  0.67594307  0.82456330     1.59600
O250        O  0.39945188  0.60829883  0.77820224    -0.81400
O251        O  0.26978379  0.72365764  0.89740912    -0.80000
C252        C  0.24692267  0.56327337  0.92424896     0.82500
C253        C  0.43786022  0.68426493  0.92424957     0.82200
O254        O  0.35640952  0.74238967  0.92284715    -0.79000
C255        C  0.34471313  0.78043709  0.75590289     0.83000
O256        O  0.25874093  0.61462813  0.92276007    -0.79100
C257        C  0.43616435  0.65643005  0.75583030     0.83100
C258        C  0.22071414  0.56496097  0.75592895     0.83400
O259        O  0.26388690  0.56060478  0.76896534    -0.81500
O260        O  0.97382959  0.55083468  0.41328398    -0.79000
C261        C  0.08976184  0.98800171  0.41145663     0.82000
O262        O  0.38173219  0.94167728  0.43815194    -0.80100
O263        O  0.43547082  0.87587609  0.55679916    -0.81600
O264        O  0.12520437  0.56025350  0.55683478    -0.81400
O265        O  0.06039282  0.61932511  0.43816135    -0.80000
Zn266      Zn  0.00050595  0.50053180  0.43621151     1.55700
O267        O  0.07110010  0.46460875  0.56681861    -0.81400
Cd268      Cd  0.06486672  0.57458281  0.51109594     1.59700
Cd269      Cd  0.42651155  0.99090577  0.51105913     1.59600
O270        O  0.53648679  0.60712007  0.56676850    -0.81400
O271        O  0.00052839  0.50056497  0.50806859    -1.91900
Cd272      Cd  0.01017301  0.93622079  0.51110778     1.59900
O273        O  0.44085587  0.56559576  0.55675097    -0.81400
O274        O  0.05935165  0.94063613  0.43817825    -0.80000
C275        C  0.39866838  0.91123025  0.41149707     0.82500
C276        C  0.01301410  0.60235023  0.41146374     0.82200
O277        O  0.07746301  0.02719847  0.41327433    -0.79000
C278        C  0.11430187  0.51229878  0.57935335     0.83000
O279        O  0.45016101  0.92351718  0.41335877    -0.79100
C280        C  0.48880770  0.60264850  0.57927662     0.83100
C281        C  0.39842947  0.88678809  0.57929961     0.83400
O282        O  0.39396801  0.92999585  0.56675533    -0.81500
C283        C  0.55179938  0.00148872  0.98884398     0.79700
N284        N  0.50141307  0.45060582  0.98927144    -0.78600
C285        C  0.95020912  0.44933981  0.98891994     0.82200
N286        N  0.94971216  0.49970992  0.98926196    -0.78500
C287        C  0.99967617  0.05093007  0.98882587     0.82200
N288        N  0.55054912  0.05143869  0.98918335    -0.80300
C289        C  0.71757423  0.33360349  0.66688741     0.79700
N290        N  0.66686048  0.28341157  0.66685493    -0.78600
C291        C  0.61649799  0.28357845  0.66682276     0.82200
N292        N  0.61702868  0.33428721  0.66687324    -0.78500
C293        C  0.66756918  0.38465947  0.66690331     0.82200
N294        N  0.71775400  0.38414320  0.66693613    -0.80300
C295        C  0.83376698  0.21825414  0.33328160     0.79700
N296        N  0.78327960  0.16715190  0.33329209    -0.78600
C297        C  0.78275343  0.11609957  0.33326783     0.82200
N298        N  0.83384552  0.11671525  0.33328969    -0.78500
C299        C  0.88490389  0.16725368  0.33328253     0.82200
N300        N  0.88429939  0.21774000  0.33330546    -0.80300
C301        C  0.81217030  0.33308003  0.04571579     0.79700
N302        N  0.79507972  0.29230151  0.00599373    -0.78600
C303        C  0.82797547  0.30201055  0.96030048     0.82200
N304        N  0.87916386  0.35196986  0.95543881    -0.78500
C305        C  0.89559811  0.39391188  0.99413783     0.82200
N306        N  0.86147384  0.38420860  0.03877007    -0.80300
C307        C  0.83853294  0.31462104  0.71250531     0.79700
N308        N  0.87369680  0.33331744  0.66745034    -0.78600
C309        C  0.85754808  0.35193170  0.62212105     0.82200
N310        N  0.80718441  0.35236496  0.62273598    -0.78500
C311        C  0.77200954  0.33324653  0.66697965     0.82200
N312        N  0.78773017  0.31413019  0.71145434    -0.80300
C313        C  0.80535617  0.33694097  0.29401879     0.79700
N314        N  0.83367563  0.37581266  0.33407512    -0.78600
C315        C  0.86200560  0.36489305  0.37384534     0.82200
N316        N  0.86404048  0.31512037  0.37235789    -0.78500
C317        C  0.83373009  0.27415526  0.33351395     0.82200
N318        N  0.80337658  0.28512226  0.29495347    -0.80300
C319        C  0.66801927  0.47968467  0.04561240     0.79700
N320        N  0.61690812  0.47787570  0.03867742    -0.78600
C321        C  0.60721650  0.00229632  0.99403429     0.82200
N322        N  0.64913996  0.02777400  0.95530747    -0.78500
C323        C  0.69907734  0.02651649  0.96015724     0.82200
N324        N  0.70878525  0.00333884  0.00586112    -0.80300
C325        C  0.50330515  0.13900567  0.37380696     0.79700
N326        N  0.95150101  0.13697995  0.37234551    -0.78600
C327        C  0.94083861  0.16728834  0.33350408     0.82200
N328        N  0.48213991  0.19762042  0.29491886    -0.78500
C329        C  0.53196753  0.19562813  0.29395905     0.82200
N330        N  0.54253363  0.16731787  0.33401276    -0.80300
C331        C  0.63611506  0.49767300  0.37381975     0.79700
N332        N  0.68588526  0.04948705  0.37233442    -0.78600
C333        C  0.72684619  0.06015753  0.33348986     0.82200
N334        N  0.71587100  0.51885479  0.29491264    -0.78500
C335        C  0.66404081  0.46901500  0.29396316     0.82200
N336        N  0.62517337  0.45843917  0.33402731    -0.80300
O337        O  0.71730834  0.30721983  0.25421901    -0.79000
C338        C  0.65414013  0.42228467  0.25666304     0.82000
O339        O  0.61009334  0.21608707  0.23086495    -0.80100
O340        O  0.54378001  0.26397584  0.11314517    -0.81600
O341        O  0.72068005  0.45729865  0.11317078    -0.81400
O342        O  0.78493306  0.39462632  0.23089923    -0.80000
Zn343      Zn  0.66712869  0.33387236  0.23109328     1.55700
O344        O  0.62525793  0.40118793  0.10150475    -0.81400
Cd345      Cd  0.74012335  0.39986297  0.15793781     1.59700
Cd346      Cd  0.66017917  0.26095175  0.15794343     1.59600
O347        O  0.77641706  0.37582879  0.10157947    -0.81400
O348        O  0.66716737  0.33389814  0.15908321    -1.91900
Cd349      Cd  0.60120388  0.34087291  0.15788669     1.59900
O350        O  0.73709013  0.28040596  0.11324843    -0.81400
O351        O  0.60638374  0.39091446  0.23081907    -0.80000
C352        C  0.57869971  0.23246320  0.25665415     0.82500
C353        C  0.76852715  0.34685164  0.25671865     0.82200
O354        O  0.69376896  0.41070792  0.25418863    -0.79000
C355        C  0.67262794  0.44527899  0.08985404     0.83000
O356        O  0.59026649  0.28366935  0.25413220    -0.79100
C357        C  0.77314029  0.32846415  0.08994024     0.83100
C358        C  0.55580943  0.22794712  0.08985628     0.83400
O359        O  0.59988901  0.22467641  0.10154198    -0.81500
C360        C  0.52143308  0.18893748  0.04560224     0.79700
N361        N  0.52326730  0.13965052  0.03865751    -0.78600
C362        C  0.99887192  0.10554131  0.99400899     0.82200
N363        N  0.97337232  0.12197324  0.95529305    -0.78500
C364        C  0.97460186  0.17315526  0.96015773     0.82200
N365        N  0.99776555  0.20603194  0.00586668    -0.80300
C366        C  0.64915783  0.00627731  0.62215768     0.79700
N367        N  0.64876793  0.45549710  0.62277675    -0.78600
C368        C  0.66792370  0.43945360  0.66700248     0.82200
N369        N  0.68702398  0.97428469  0.71146252    -0.78500
C370        C  0.68650335  0.02458343  0.71252849     0.82200
N371        N  0.66777557  0.04104072  0.66748660    -0.80300
C372        C  0.99483934  0.14355832  0.62206453     0.79700
N373        N  0.54564567  0.19393652  0.62267575    -0.78600
C374        C  0.56169338  0.22913492  0.66690058     0.82200
N375        N  0.02684395  0.21342189  0.71136047    -0.78500
C376        C  0.97652543  0.16260837  0.71242010     0.82200
N377        N  0.96006074  0.12741897  0.66738304    -0.80300
O378        O  0.88650212  0.14472416  0.92276182    -0.79000
C379        C  0.81686485  0.25417713  0.92435734     0.82000
O380        O  0.77746661  0.04672661  0.89729988    -0.80100
O381        O  0.70929634  0.10166628  0.77828263    -0.81600
O382        O  0.89286008  0.29183852  0.77821494    -0.81400
O383        O  0.95441721  0.23135124  0.89729352    -0.80000
Zn384      Zn  0.83389325  0.16725589  0.89966863     1.55700
O385        O  0.79717452  0.23728454  0.76898950    -0.81400
Cd386      Cd  0.90780902  0.23251757  0.82448111     1.59700
Cd387      Cd  0.82522364  0.09337920  0.82449510     1.59600
O388        O  0.94055830  0.20396882  0.76888172    -0.81400
O389        O  0.83389312  0.16728823  0.82827216    -1.91900
Cd390      Cd  0.76864281  0.17593830  0.82455500     1.59600
O391        O  0.89944834  0.10829473  0.77817994    -0.81400
O392        O  0.76978277  0.22364665  0.89740671    -0.80000
C393        C  0.74692424  0.06325957  0.92423253     0.82500
C394        C  0.93786496  0.18426106  0.92423291     0.82200
O395        O  0.85640874  0.24237772  0.92284379    -0.79000
C396        C  0.84471577  0.28043524  0.75589825     0.83000
O397        O  0.75874799  0.11461611  0.92275182    -0.79100
C398        C  0.93616467  0.15642844  0.75581499     0.83100
C399        C  0.72070920  0.06496313  0.75590816     0.83400
O400        O  0.76388312  0.06060688  0.76893933    -0.81500
O401        O  0.47380566  0.05082684  0.41327799    -0.79000
C402        C  0.58978001  0.48800262  0.41146928     0.82000
O403        O  0.88174844  0.44168856  0.43814472    -0.80100
O404        O  0.93548468  0.37587600  0.55680330    -0.81600
O405        O  0.62519414  0.06024876  0.55681422    -0.81400
O406        O  0.56037561  0.11931513  0.43814069    -0.80000
Zn407      Zn  0.50048811  0.00052884  0.43620610     1.55700
O408        O  0.57108573  0.96460498  0.56680433    -0.81400
Cd409      Cd  0.56485706  0.07458066  0.51107736     1.59700
Cd410      Cd  0.92652332  0.49090662  0.51105948     1.59600
O411        O  0.03648590  0.10712698  0.56674786    -0.81400
O412        O  0.50051591  0.00056510  0.50806259    -1.91900
Cd413      Cd  0.51019015  0.43622300  0.51111884     1.59900
O414        O  0.94085336  0.06560183  0.55674110    -0.81400
O415        O  0.55936872  0.44063709  0.43819048    -0.80000
C416        C  0.89868254  0.41124086  0.41148786     0.82500
C417        C  0.51299348  0.10234076  0.41144962     0.82200
O418        O  0.57748279  0.52720059  0.41328720    -0.79000
C419        C  0.61428990  0.01229457  0.57933553     0.83000
O420        O  0.95017383  0.42352226  0.41335409    -0.79100
C421        C  0.98880828  0.10265664  0.57926016     0.83100
C422        C  0.89843700  0.38678369  0.57929560     0.83400
O423        O  0.89397304  0.42998903  0.56674712    -0.81500
C424        C  0.55178849  0.50148374  0.98884585     0.79700
N425        N  0.50142296  0.95061179  0.98927138    -0.78600
C426        C  0.95021994  0.94934765  0.98891918     0.82200
N427        N  0.94972458  0.99971824  0.98925812    -0.78500
C428        C  0.99966322  0.55092264  0.98883163     0.82200
N429        N  0.55053658  0.55143252  0.98918802    -0.80300
C430        C  0.71756734  0.83360437  0.66689356     0.79700
N431        N  0.66685438  0.78341178  0.66686610    -0.78600
C432        C  0.61649107  0.78357710  0.66682789     0.82200
N433        N  0.61701996  0.83428500  0.66686762    -0.78500
C434        C  0.66755956  0.88465805  0.66689250     0.82200
N435        N  0.71774534  0.88414329  0.66693098    -0.80300
C436        C  0.83377667  0.71825144  0.33328520     0.79700
N437        N  0.78329091  0.66714804  0.33329500    -0.78600
C438        C  0.78276702  0.61609699  0.33327289     0.82200
N439        N  0.83386033  0.61671480  0.33329831    -0.78500
C440        C  0.88491794  0.66725468  0.33329192     0.82200
N441        N  0.88431061  0.71773987  0.33331222    -0.80300
C442        C  0.81218367  0.83308962  0.04572074     0.79700
N443        N  0.79508775  0.79231397  0.00599585    -0.78600
C444        C  0.82797832  0.80202418  0.96029880     0.82200
N445        N  0.87916773  0.85198213  0.95543596    -0.78500
C446        C  0.89560786  0.89392144  0.99413840     0.82200
N447        N  0.86148833  0.88421739  0.03877477    -0.80300
C448        C  0.83852831  0.81462269  0.71251018     0.79700
N449        N  0.87369205  0.83332123  0.66745499    -0.78600
C450        C  0.85754248  0.85193637  0.62212680     0.82200
N451        N  0.80717873  0.85236923  0.62274328    -0.78500
C452        C  0.77200379  0.83324887  0.66698670     0.82200
N453        N  0.78772461  0.81413060  0.71146013    -0.80300
C454        C  0.80536117  0.83693540  0.29401951     0.79700
N455        N  0.83367052  0.87580263  0.33408135    -0.78600
C456        C  0.86199460  0.86488151  0.37385587     0.82200
N457        N  0.86403541  0.81511203  0.37236740    -0.78500
C458        C  0.83373517  0.77415050  0.33351732     0.82200
N459        N  0.80338586  0.78511844  0.29495227    -0.80300
C460        C  0.66803031  0.97968621  0.04560705     0.79700
N461        N  0.61692092  0.97788202  0.03867570    -0.78600
C462        C  0.60720652  0.50229436  0.99403818     0.82200
N463        N  0.64913498  0.52778231  0.95531757    -0.78500
C464        C  0.69907434  0.52652918  0.96017097     0.82200
N465        N  0.70877892  0.50334617  0.00587220    -0.80300
C466        C  0.50332566  0.63901596  0.37382138     0.79700
N467        N  0.95152059  0.63698848  0.37235967    -0.78600
C468        C  0.94085481  0.66729209  0.33351525     0.82200
N469        N  0.48215394  0.69762055  0.29492693    -0.78500
C470        C  0.53198236  0.69562967  0.29396701     0.82200
N471        N  0.54255173  0.66732439  0.33402383    -0.80300
C472        C  0.63609975  0.99767419  0.37380972     0.79700
N473        N  0.68590317  0.54948330  0.37234577    -0.78600
C474        C  0.72685963  0.56015493  0.33349591     0.82200
N475        N  0.71586498  0.01885343  0.29491377    -0.78500
C476        C  0.66403780  0.96901075  0.29396505     0.82200
N477        N  0.62516548  0.95843614  0.33402385    -0.80300
O478        O  0.71731618  0.80721705  0.25421658    -0.79000
C479        C  0.65414270  0.92228035  0.25666781     0.82000
O480        O  0.61010793  0.71608829  0.23087041    -0.80100
O481        O  0.54379169  0.76397620  0.11315082    -0.81600
O482        O  0.72069171  0.95730240  0.11316869    -0.81400
O483        O  0.78494148  0.89462526  0.23090292    -0.80000
Zn484      Zn  0.66713795  0.83387237  0.23109448     1.55700
O485        O  0.62526960  0.90119168  0.10150374    -0.81400
Cd486      Cd  0.74013468  0.89986846  0.15794233     1.59700
Cd487      Cd  0.66019169  0.76095389  0.15794626     1.59600
O488        O  0.77643219  0.87583737  0.10158681    -0.81400
O489        O  0.66717939  0.83390142  0.15908413    -1.91900
Cd490      Cd  0.60121648  0.84087580  0.15788631     1.59900
O491        O  0.73710534  0.78041392  0.11325332    -0.81400
O492        O  0.60638872  0.89090956  0.23082071    -0.80000
C493        C  0.57871235  0.73246294  0.25665824     0.82500
C494        C  0.76853490  0.84684802  0.25671790     0.82200
O495        O  0.69377398  0.91070654  0.25419567    -0.79000
C496        C  0.67263962  0.94528223  0.08985130     0.83000
O497        O  0.59027532  0.78366760  0.25413139    -0.79100
C498        C  0.77315587  0.82847327  0.08994691     0.83100
C499        C  0.55581859  0.72794577  0.08986188     0.83400
O500        O  0.59989879  0.72467474  0.10154497    -0.81500
C501        C  0.52143708  0.68893570  0.04561014     0.79700
N502        N  0.52326497  0.63964556  0.03866427    -0.78600
C503        C  0.99886006  0.60553430  0.99401873     0.82200
N504        N  0.97335941  0.62196854  0.95530596    -0.78500
C505        C  0.97459578  0.67315389  0.96017137     0.82200
N506        N  0.99776735  0.70603155  0.00587818    -0.80300
C507        C  0.64916935  0.50628080  0.62217539     0.79700
N508        N  0.64875520  0.95549281  0.62276137    -0.78600
C509        C  0.66791252  0.93945159  0.66698782     0.82200
N510        N  0.68703363  0.47428428  0.71147923    -0.78500
C511        C  0.68651182  0.52458251  0.71254722     0.82200
N512        N  0.66778467  0.54104148  0.66750612    -0.80300
C513        C  0.99483546  0.64355104  0.62207957     0.79700
N514        N  0.54563966  0.69393138  0.62268713    -0.78600
C515        C  0.56168773  0.72913274  0.66690954     0.82200
N516        N  0.02684044  0.71342130  0.71137078    -0.78500
C517        C  0.97652333  0.66260668  0.71243427     0.82200
N518        N  0.96005841  0.62741318  0.66739964    -0.80300
O519        O  0.88649446  0.64473425  0.92278541    -0.79000
C520        C  0.81686660  0.75419009  0.92435786     0.82000
O521        O  0.77747195  0.54674216  0.89732602    -0.80100
O522        O  0.70930110  0.60166661  0.77829703    -0.81600
O523        O  0.89285771  0.79184290  0.77822152    -0.81400
O524        O  0.95441790  0.73135311  0.89730428    -0.80000
Zn525      Zn  0.83388943  0.66726612  0.89968137     1.55700
O526        O  0.79717286  0.73728461  0.76899308    -0.81400
Cd527      Cd  0.90781137  0.73252498  0.82449145     1.59700
Cd528      Cd  0.82522908  0.59338680  0.82451900     1.59600
O529        O  0.94055687  0.70397137  0.76889192    -0.81400
O530        O  0.83389615  0.66729523  0.82828482    -1.91900
Cd531      Cd  0.76864496  0.67594307  0.82456329     1.59600
O532        O  0.89945199  0.60829882  0.77820219    -0.81400
O533        O  0.76978386  0.72365760  0.89740910    -0.80000
C534        C  0.74692276  0.56327336  0.92424897     0.82500
C535        C  0.93786027  0.68426493  0.92424951     0.82200
O536        O  0.85640958  0.74238972  0.92284720    -0.79000
C537        C  0.84471314  0.78043709  0.75590287     0.83000
O538        O  0.75874097  0.61462810  0.92276010    -0.79100
C539        C  0.93616440  0.65643007  0.75583030     0.83100
C540        C  0.72071411  0.56496098  0.75592893     0.83400
O541        O  0.76388690  0.56060480  0.76896524    -0.81500
O542        O  0.47382958  0.55083468  0.41328402    -0.79000
C543        C  0.58976181  0.98800174  0.41145661     0.82000
O544        O  0.88173231  0.94167732  0.43815196    -0.80100
O545        O  0.93547082  0.87587616  0.55679919    -0.81600
O546        O  0.62520447  0.56025350  0.55683478    -0.81400
O547        O  0.56039286  0.61932507  0.43816131    -0.80000
Zn548      Zn  0.50050605  0.50053181  0.43621151     1.55700
O549        O  0.57110021  0.46460874  0.56681860    -0.81400
Cd550      Cd  0.56486683  0.57458281  0.51109594     1.59700
Cd551      Cd  0.92651167  0.99090577  0.51105913     1.59600
O552        O  0.03648683  0.60712010  0.56676849    -0.81400
O553        O  0.50052843  0.50056497  0.50806860    -1.91900
Cd554      Cd  0.51017309  0.93622079  0.51110779     1.59900
O555        O  0.94085592  0.56559574  0.55675098    -0.81400
O556        O  0.55935171  0.94063617  0.43817827    -0.80000
C557        C  0.89866839  0.91123026  0.41149704     0.82500
C558        C  0.51301418  0.60235026  0.41146374     0.82200
O559        O  0.57746289  0.02719844  0.41327429    -0.79000
C560        C  0.61430197  0.51229877  0.57935333     0.83000
O561        O  0.95016103  0.92351712  0.41335873    -0.79100
C562        C  0.98880774  0.60264849  0.57927663     0.83100
C563        C  0.89842941  0.88678810  0.57929960     0.83400
O564        O  0.89396785  0.92999580  0.56675530    -0.81500
loop_ 
_geom_bond_atom_site_label_1 
_geom_bond_atom_site_label_2 
_geom_bond_distance 
_geom_bond_site_symmetry_2 
_ccdc_geom_bond_type 
C1            N6   1.365       .  A
C1          N143   1.366   1_545  A
C1           C39   1.489       .  S
N2          C142   1.366       .  A
N2          C285   1.365   1_455  A
C3            N4   1.366       .  A
C3          N284   1.365       .  A
C3           C23   1.489       .  S
N4          C146   1.365       .  A
C5          N145   1.365   1_545  A
C5          N288   1.366       .  A
C5           C80   1.489       .  S
N6          C287   1.366   1_455  A
C7            N8   1.361       .  A
C7           N12   1.361       .  A
C7           C29   1.473       .  S
N8            C9   1.361       .  A
C9           N10   1.361       .  A
C9           C92   1.473       .  S
N10          C11   1.361       .  A
C11          N12   1.361       .  A
C11          C86   1.473       .  S
C13          N14   1.370       .  A
C13          N18   1.370       .  A
C13          C35   1.509       .  S
N14          C15   1.370       .  A
C15          N16   1.370       .  A
C15          C51   1.508       .  S
N16          C17   1.370       .  A
C17          N18   1.370       .  A
C17          C45   1.509       .  S
C19          N20   1.355       .  A
C19          N24   1.365       .  A
C19          C75   1.460       .  S
N20          C21   1.357   1_554  A
C21          N22   1.369       .  A
C21          C97   1.456       .  S
N22          C23   1.359       .  A
C23          N24   1.355   1_556  A
C25          N26   1.363       .  A
C25          N30   1.364       .  A
C25         C114   1.459       .  S
N26          C27   1.363       .  A
C27          N28   1.365       .  A
C27         C140   1.460       .  S
N28          C29   1.348       .  A
C29          N30   1.348       .  A
C31          N32   1.348       .  A
C31          N36   1.372       .  A
C31          C71   1.461       .  S
N32          C33   1.348       .  A
C33          N34   1.371       .  A
C33         C134   1.460       .  S
N34          C35   1.366       .  A
C35          N36   1.366       .  A
C37          N38   1.365       .  A
C37         N183   1.355       .  A
C37          C73   1.460       .  S
N38         C180   1.355   1_554  A
C39          N40   1.359       .  A
C39         N179   1.355   1_546  A
N40          C41   1.369       .  A
C41          N42   1.357   1_556  A
C41         C111   1.456       .  S
N42         C178   1.355   1_545  A
C43          N48   1.348       .  A
C43         N326   1.371   1_455  A
C43         C135   1.460       .  S
N44          C45   1.366       .  A
N44         C325   1.371       .  A
C45         N328   1.366       .  A
N46          C47   1.372   1_655  A
N46         C327   1.366       .  A
C47          N48   1.348       .  A
C47          C70   1.461       .  S
C49          N54   1.348       .  A
C49         N191   1.371       .  A
C49         C120   1.460       .  S
N50          C51   1.366       .  A
N50         C190   1.371   1_545  A
C51         N193   1.366       .  A
N52          C53   1.372       .  A
N52         C192   1.366       .  A
C53          N54   1.348       .  A
C53          C56   1.461       .  S
O55          C71   1.256       .  A
O55         Zn61   1.906       .  S
C56          O72   1.256       .  A
C56          O69   1.294       .  A
O57          C70   1.294       .  A
O57         Cd64   2.180       .  S
O58          C76   1.297       .  A
O58         Cd67   2.158       .  S
O59          C73   1.297       .  A
O59         Cd63   2.158       .  S
O60          C71   1.294       .  A
O60         Cd63   2.180       .  S
Zn61         O72   1.906       .  S
Zn61         O74   1.906       .  S
Zn61         O66   1.738       .  S
O62          C73   1.267       .  A
O62         Cd67   1.966       .  S
Cd63         O65   1.966       .  S
Cd63         O66   1.881       .  S
Cd64         O68   2.158       .  S
Cd64         O77   1.966       .  S
Cd64         O66   1.881       .  S
O65          C75   1.267       .  A
O66         Cd67   1.881       .  S
Cd67         O69   2.180       .  S
O68          C75   1.297       .  A
C70          O74   1.256       .  A
C76          C78   1.460       .  S
C76          O77   1.267       .  A
C78          N79   1.365       .  A
C78         N365   1.354   1_455  A
N79         C362   1.355   1_454  A
C80          N81   1.359       .  A
C80         N361   1.355   1_556  A
N81          C82   1.369       .  A
C82          N83   1.357   1_556  A
C82         C112   1.456       .  S
N83         C360   1.354       .  A
C84          N89   1.363       .  A
C84         N226   1.365   1_545  A
C84         C137   1.460       .  S
N85          C86   1.348       .  A
N85         C225   1.365       .  A
C86         N228   1.348       .  A
N87          C88   1.364   1_565  A
N87         C227   1.348       .  A
C88          N89   1.363       .  A
C88         C117   1.459       .  S
C90          N95   1.363       .  A
C90         N373   1.365       .  A
C90         C139   1.460       .  S
N91          C92   1.348       .  A
N91         C372   1.365   1_455  A
C92         N375   1.348       .  A
N93          C94   1.364       .  A
N93         C374   1.348       .  A
C94          N95   1.363       .  A
C94         C116   1.459       .  S
O96         C112   1.257       .  A
O96        Zn102   1.886       .  S
C97         O113   1.257       .  A
C97         O110   1.292       .  A
O98         C111   1.292       .  A
O98        Cd105   2.170       .  S
O99         C117   1.293       .  A
O99        Cd108   2.149       .  S
O100        C114   1.293       .  A
O100       Cd104   2.148       .  S
O101        C112   1.292       .  A
O101       Cd104   2.170       .  S
Zn102       O113   1.886       .  S
Zn102       O115   1.886       .  S
Zn102       O107   1.723       .  S
O103        C114   1.267       .  A
O103       Cd108   1.964       .  S
Cd104       O106   1.964       .  S
Cd104       O107   1.890       .  S
Cd105       O109   2.148       .  S
Cd105       O118   1.963       .  S
Cd105       O107   1.890       .  S
O106        C116   1.267       .  A
O107       Cd108   1.890       .  S
Cd108       O110   2.170       .  S
O109        C116   1.293       .  A
C111        O115   1.257       .  A
C117        O118   1.267       .  A
O119        C135   1.257   1_655  A
O119       Zn125   1.908   1_655  S
C120        O136   1.257       .  A
C120        O133   1.293       .  A
O121        C134   1.293       .  A
O121       Cd128   2.172       .  S
O122        C140   1.294       .  A
O122       Cd413   2.155       .  S
O123        C137   1.294       .  A
O123       Cd127   2.156       .  S
O124        C135   1.293       .  A
O124       Cd127   2.172       .  S
Zn125       O277   1.908       .  S
Zn125       O561   1.908   1_445  S
Zn125       O130   1.735       .  S
O126        C137   1.267   1_565  A
O126       Cd272   1.958       .  S
Cd127       O411   1.958       .  S
Cd127       O130   1.881       .  S
Cd128       O141   1.958       .  S
Cd128       O273   2.156       .  S
Cd128       O553   1.881       .  S
O129        C139   1.267       .  A
O129       Cd409   1.958       .  S
O130       Cd551   1.881   1_445  S
O130       Cd272   1.881   1_545  S
Cd131       O133   2.172       .  S
Cd131       O404   2.155   1_455  S
Cd131       O267   1.958       .  S
Cd131       O271   1.881       .  S
O132        C139   1.294       .  A
O132       Cd269   2.156   1_545  S
C134        O138   1.257       .  A
O136       Zn266   1.908       .  S
O138       Zn548   1.908       .  S
C140        O141   1.267       .  A
C142        N147   1.365       .  A
C142        C180   1.489       .  S
N143        C426   1.365   1_455  A
C144        N425   1.365       .  A
C144        N145   1.366       .  A
C144        C164   1.489       .  S
C146        N429   1.366       .  A
C146        C221   1.489       .  S
N147        C428   1.366   1_455  A
C148        N149   1.361       .  A
C148        N153   1.361       .  A
C148        C170   1.473       .  S
N149        C150   1.361       .  A
C150        N151   1.361       .  A
C150        C233   1.473       .  S
N151        C152   1.361       .  A
C152        N153   1.361       .  A
C152        C227   1.473       .  S
C154        N155   1.370       .  A
C154        N159   1.370       .  A
C154        C176   1.509       .  S
N155        C156   1.370       .  A
C156        N157   1.370       .  A
C156        C192   1.508       .  S
N157        C158   1.370       .  A
C158        N159   1.370       .  A
C158        C186   1.509       .  S
C160        N161   1.355       .  A
C160        N165   1.365       .  A
C160        C216   1.460       .  S
N161        C162   1.357   1_554  A
C162        N163   1.369       .  A
C162        C238   1.456       .  S
N163        C164   1.359       .  A
C164        N165   1.355   1_556  A
C166        N167   1.363       .  A
C166        N171   1.364       .  A
C166        C255   1.459       .  S
N167        C168   1.363       .  A
C168        N169   1.365       .  A
C168        C281   1.460       .  S
N169        C170   1.348       .  A
C170        N171   1.348       .  A
C172        N173   1.348       .  A
C172        N177   1.372       .  A
C172        C212   1.461       .  S
N173        C174   1.348       .  A
C174        N175   1.371       .  A
C174        C275   1.460       .  S
N175        C176   1.366       .  A
C176        N177   1.366       .  A
C178        N179   1.365       .  A
C178        C214   1.460       .  S
C180        N181   1.359       .  A
N181        C182   1.369       .  A
C182        N183   1.357   1_556  A
C182        C252   1.456       .  S
C184        N467   1.371   1_455  A
C184        N189   1.348       .  A
C184        C276   1.460       .  S
N185        C466   1.371       .  A
N185        C186   1.366       .  A
C186        N469   1.366       .  A
N187        C468   1.366       .  A
N187        C188   1.372   1_655  A
C188        N189   1.348       .  A
C188        C211   1.461       .  S
C190        N195   1.348       .  A
C190        C261   1.460       .  S
N191        C192   1.366       .  A
N193        C194   1.372   1_545  A
C194        N195   1.348       .  A
C194        C197   1.461       .  S
O196        C212   1.256       .  A
O196       Zn202   1.906       .  S
C197        O213   1.256       .  A
C197        O210   1.294       .  A
O198        C211   1.294       .  A
O198       Cd205   2.180       .  S
O199        C217   1.297       .  A
O199       Cd208   2.157       .  S
O200        C214   1.297       .  A
O200       Cd204   2.158       .  S
O201        C212   1.294       .  A
O201       Cd204   2.180       .  S
Zn202       O213   1.906       .  S
Zn202       O215   1.906       .  S
Zn202       O207   1.738       .  S
O203        C214   1.267       .  A
O203       Cd208   1.966       .  S
Cd204       O206   1.966       .  S
Cd204       O207   1.881       .  S
Cd205       O209   2.158       .  S
Cd205       O218   1.966       .  S
Cd205       O207   1.881       .  S
O206        C216   1.267       .  A
O207       Cd208   1.881       .  S
Cd208       O210   2.180       .  S
O209        C216   1.297       .  A
C211        O215   1.256       .  A
C217        C219   1.460       .  S
C217        O218   1.267       .  A
C219        N220   1.365       .  A
C219        N506   1.354   1_455  A
N220        C503   1.355   1_454  A
C221        N502   1.355   1_556  A
C221        N222   1.359       .  A
N222        C223   1.369       .  A
C223        N224   1.357   1_556  A
C223        C253   1.456       .  S
N224        C501   1.354       .  A
C225        N230   1.363       .  A
C225        C278   1.460       .  S
N226        C227   1.348       .  A
N228        C229   1.364       .  A
C229        N230   1.363       .  A
C229        C258   1.459       .  S
C231        N514   1.365       .  A
C231        N236   1.363       .  A
C231        C280   1.460       .  S
N232        C513   1.365   1_455  A
N232        C233   1.348       .  A
C233        N516   1.348       .  A
N234        C515   1.348       .  A
N234        C235   1.364       .  A
C235        N236   1.363       .  A
C235        C257   1.459       .  S
O237        C253   1.257       .  A
O237       Zn243   1.886       .  S
C238        O254   1.257       .  A
C238        O251   1.292       .  A
O239        C252   1.292       .  A
O239       Cd246   2.170       .  S
O240        C258   1.293       .  A
O240       Cd249   2.149       .  S
O241        C255   1.293       .  A
O241       Cd245   2.148       .  S
O242        C253   1.292       .  A
O242       Cd245   2.170       .  S
Zn243       O254   1.886       .  S
Zn243       O256   1.886       .  S
Zn243       O248   1.723       .  S
O244        C255   1.267       .  A
O244       Cd249   1.964       .  S
Cd245       O247   1.964       .  S
Cd245       O248   1.890       .  S
Cd246       O250   2.148       .  S
Cd246       O259   1.963       .  S
Cd246       O248   1.890       .  S
O247        C257   1.267       .  A
O248       Cd249   1.890       .  S
Cd249       O251   2.170       .  S
O250        C257   1.293       .  A
C252        O256   1.257       .  A
C258        O259   1.267       .  A
O260        C276   1.257   1_655  A
O260       Zn266   1.908   1_655  S
C261        O277   1.257   1_565  A
C261        O274   1.293       .  A
O262        C275   1.293       .  A
O262       Cd269   2.172       .  S
O263        C281   1.294       .  A
O263       Cd554   2.155       .  S
O264        C278   1.294       .  A
O264       Cd268   2.156       .  S
O265        C276   1.293       .  A
O265       Cd268   2.172       .  S
Zn266       O420   1.908   1_455  S
Zn266       O271   1.735       .  S
O267        C278   1.267       .  A
Cd268       O552   1.958       .  S
Cd268       O271   1.881       .  S
Cd269       O282   1.958       .  S
Cd269       O412   1.881   1_565  S
O270        C280   1.267       .  A
O270       Cd550   1.958       .  S
O271       Cd410   1.881   1_455  S
Cd272       O545   2.155   1_455  S
Cd272       O274   2.172       .  S
O273        C280   1.294       .  A
C275        O279   1.257       .  A
O279       Zn407   1.908   1_565  S
C281        O282   1.267       .  A
C283        N425   1.366   1_545  A
C283        N288   1.365       .  A
C283        C321   1.489       .  S
N284        C424   1.366       .  A
C285        N286   1.366       .  A
C285        C305   1.489       .  S
N286        C428   1.365       .  A
C287        N427   1.365   1_545  A
C287        C362   1.489       .  S
C289        N290   1.361       .  A
C289        N294   1.361       .  A
C289        C311   1.473       .  S
N290        C291   1.361       .  A
C291        N292   1.361       .  A
C291        C374   1.473       .  S
N292        C293   1.361       .  A
C293        N294   1.361       .  A
C293        C368   1.473       .  S
C295        N296   1.370       .  A
C295        N300   1.370       .  A
C295        C317   1.509       .  S
N296        C297   1.370       .  A
C297        N298   1.370       .  A
C297        C333   1.508       .  S
N298        C299   1.370       .  A
C299        N300   1.370       .  A
C299        C327   1.509       .  S
C301        N302   1.355       .  A
C301        N306   1.365       .  A
C301        C357   1.460       .  S
N302        C303   1.357   1_554  A
C303        N304   1.369       .  A
C303        C379   1.456       .  S
N304        C305   1.359       .  A
C305        N306   1.355   1_556  A
C307        N308   1.363       .  A
C307        N312   1.364       .  A
C307        C396   1.459       .  S
N308        C309   1.363       .  A
C309        N310   1.365       .  A
C309        C422   1.460       .  S
N310        C311   1.348       .  A
C311        N312   1.348       .  A
C313        N314   1.348       .  A
C313        N318   1.372       .  A
C313        C353   1.461       .  S
N314        C315   1.348       .  A
C315        N316   1.371       .  A
C315        C416   1.460       .  S
N316        C317   1.366       .  A
C317        N318   1.366       .  A
C319        N320   1.365       .  A
C319        N465   1.355       .  A
C319        C355   1.460       .  S
N320        C462   1.355   1_554  A
C321        N461   1.355   1_546  A
C321        N322   1.359       .  A
N322        C323   1.369       .  A
C323        N324   1.357   1_556  A
C323        C393   1.456       .  S
N324        C460   1.355   1_545  A
C325        N330   1.348       .  A
C325        C417   1.460       .  S
N326        C327   1.366       .  A
N328        C329   1.372       .  A
C329        N330   1.348       .  A
C329        C352   1.461       .  S
C331        N473   1.371       .  A
C331        N336   1.348       .  A
C331        C402   1.460       .  S
N332        C472   1.371   1_545  A
N332        C333   1.366       .  A
C333        N475   1.366       .  A
N334        C474   1.366       .  A
N334        C335   1.372       .  A
C335        N336   1.348       .  A
C335        C338   1.461       .  S
O337        C353   1.256       .  A
O337       Zn343   1.906       .  S
C338        O354   1.256       .  A
C338        O351   1.294       .  A
O339        C352   1.294       .  A
O339       Cd346   2.180       .  S
O340        C358   1.297       .  A
O340       Cd349   2.158       .  S
O341        C355   1.297       .  A
O341       Cd345   2.158       .  S
O342        C353   1.294       .  A
O342       Cd345   2.180       .  S
Zn343       O354   1.906       .  S
Zn343       O356   1.906       .  S
Zn343       O348   1.738       .  S
O344        C355   1.267       .  A
O344       Cd349   1.966       .  S
Cd345       O347   1.966       .  S
Cd345       O348   1.881       .  S
Cd346       O350   2.158       .  S
Cd346       O359   1.966       .  S
Cd346       O348   1.881       .  S
O347        C357   1.267       .  A
O348       Cd349   1.881       .  S
Cd349       O351   2.180       .  S
O350        C357   1.297       .  A
C352        O356   1.256       .  A
C358        C360   1.460       .  S
C358        O359   1.267       .  A
C360        N361   1.365       .  A
C362        N363   1.359       .  A
N363        C364   1.369       .  A
C364        N365   1.357   1_556  A
C364        C394   1.456       .  S
C366        N508   1.365   1_545  A
C366        N371   1.363       .  A
C366        C419   1.460       .  S
N367        C507   1.365       .  A
N367        C368   1.348       .  A
C368        N510   1.348       .  A
N369        C509   1.348       .  A
N369        C370   1.364   1_565  A
C370        N371   1.363       .  A
C370        C399   1.459       .  S
C372        N377   1.363       .  A
C372        C421   1.460       .  S
N373        C374   1.348       .  A
N375        C376   1.364   1_455  A
C376        N377   1.363       .  A
C376        C398   1.459       .  S
O378        C394   1.257       .  A
O378       Zn384   1.886       .  S
C379        O395   1.257       .  A
C379        O392   1.292       .  A
O380        C393   1.292       .  A
O380       Cd387   2.170       .  S
O381        C399   1.293       .  A
O381       Cd390   2.149       .  S
O382        C396   1.293       .  A
O382       Cd386   2.148       .  S
O383        C394   1.292       .  A
O383       Cd386   2.170       .  S
Zn384       O395   1.886       .  S
Zn384       O397   1.886       .  S
Zn384       O389   1.723       .  S
O385        C396   1.267       .  A
O385       Cd390   1.964       .  S
Cd386       O388   1.964       .  S
Cd386       O389   1.890       .  S
Cd387       O391   2.148       .  S
Cd387       O400   1.963       .  S
Cd387       O389   1.890       .  S
O388        C398   1.267       .  A
O389       Cd390   1.890       .  S
Cd390       O392   2.170       .  S
O391        C398   1.293       .  A
C393        O397   1.257       .  A
C399        O400   1.267       .  A
O401        C417   1.257       .  A
O401       Zn407   1.908       .  S
C402        O418   1.257       .  A
C402        O415   1.293       .  A
O403        C416   1.293       .  A
O403       Cd410   2.172       .  S
O404        C422   1.294       .  A
O405        C419   1.294       .  A
O405       Cd409   2.156       .  S
O406        C417   1.293       .  A
O406       Cd409   2.172       .  S
Zn407       O559   1.908       .  S
Zn407       O412   1.735       .  S
O408        C419   1.267   1_565  A
O408       Cd554   1.958       .  S
Cd409       O412   1.881       .  S
Cd410       O555   2.156       .  S
Cd410       O423   1.958       .  S
O411        C421   1.267   1_455  A
O412       Cd554   1.881   1_545  S
Cd413       O549   1.958       .  S
Cd413       O415   2.172       .  S
Cd413       O553   1.881       .  S
O414        C421   1.294       .  A
O414       Cd551   2.156   1_545  S
C416        O420   1.257       .  A
O418       Zn548   1.908       .  S
C422        O423   1.267       .  A
C424        N429   1.365       .  A
C424        C462   1.489       .  S
C426        N427   1.366       .  A
C426        C446   1.489       .  S
C428        C503   1.489       .  S
C430        N431   1.361       .  A
C430        N435   1.361       .  A
C430        C452   1.473       .  S
N431        C432   1.361       .  A
C432        N433   1.361       .  A
C432        C515   1.473       .  S
N433        C434   1.361       .  A
C434        N435   1.361       .  A
C434        C509   1.473       .  S
C436        N437   1.370       .  A
C436        N441   1.370       .  A
C436        C458   1.509       .  S
N437        C438   1.370       .  A
C438        N439   1.370       .  A
C438        C474   1.508       .  S
N439        C440   1.370       .  A
C440        N441   1.370       .  A
C440        C468   1.509       .  S
C442        N443   1.355       .  A
C442        N447   1.365       .  A
C442        C498   1.460       .  S
N443        C444   1.357   1_554  A
C444        N445   1.369       .  A
C444        C520   1.456       .  S
N445        C446   1.359       .  A
C446        N447   1.355   1_556  A
C448        N449   1.363       .  A
C448        N453   1.364       .  A
C448        C537   1.459       .  S
N449        C450   1.363       .  A
C450        N451   1.365       .  A
C450        C563   1.460       .  S
N451        C452   1.348       .  A
C452        N453   1.348       .  A
C454        N455   1.348       .  A
C454        N459   1.372       .  A
C454        C494   1.461       .  S
N455        C456   1.348       .  A
C456        N457   1.371       .  A
C456        C557   1.460       .  S
N457        C458   1.366       .  A
C458        N459   1.366       .  A
C460        N461   1.365       .  A
C460        C496   1.460       .  S
C462        N463   1.359       .  A
N463        C464   1.369       .  A
C464        N465   1.357   1_556  A
C464        C534   1.456       .  S
C466        N471   1.348       .  A
C466        C558   1.460       .  S
N467        C468   1.366       .  A
N469        C470   1.372       .  A
C470        N471   1.348       .  A
C470        C493   1.461       .  S
C472        N477   1.348       .  A
C472        C543   1.460       .  S
N473        C474   1.366       .  A
N475        C476   1.372   1_545  A
C476        N477   1.348       .  A
C476        C479   1.461       .  S
O478        C494   1.256       .  A
O478       Zn484   1.906       .  S
C479        O495   1.256       .  A
C479        O492   1.294       .  A
O480        C493   1.294       .  A
O480       Cd487   2.180       .  S
O481        C499   1.297       .  A
O481       Cd490   2.157       .  S
O482        C496   1.297       .  A
O482       Cd486   2.158       .  S
O483        C494   1.294       .  A
O483       Cd486   2.180       .  S
Zn484       O495   1.906       .  S
Zn484       O497   1.906       .  S
Zn484       O489   1.738       .  S
O485        C496   1.267       .  A
O485       Cd490   1.966       .  S
Cd486       O488   1.966       .  S
Cd486       O489   1.881       .  S
Cd487       O491   2.158       .  S
Cd487       O500   1.966       .  S
Cd487       O489   1.881       .  S
O488        C498   1.267       .  A
O489       Cd490   1.881       .  S
Cd490       O492   2.180       .  S
O491        C498   1.297       .  A
C493        O497   1.256       .  A
C499        C501   1.460       .  S
C499        O500   1.267       .  A
C501        N502   1.365       .  A
C503        N504   1.359       .  A
N504        C505   1.369       .  A
C505        N506   1.357   1_556  A
C505        C535   1.456       .  S
C507        N512   1.363       .  A
C507        C560   1.460       .  S
N508        C509   1.348       .  A
N510        C511   1.364       .  A
C511        N512   1.363       .  A
C511        C540   1.459       .  S
C513        N518   1.363       .  A
C513        C562   1.460       .  S
N514        C515   1.348       .  A
N516        C517   1.364   1_455  A
C517        N518   1.363       .  A
C517        C539   1.459       .  S
O519        C535   1.257       .  A
O519       Zn525   1.886       .  S
C520        O536   1.257       .  A
C520        O533   1.292       .  A
O521        C534   1.292       .  A
O521       Cd528   2.170       .  S
O522        C540   1.293       .  A
O522       Cd531   2.149       .  S
O523        C537   1.293       .  A
O523       Cd527   2.148       .  S
O524        C535   1.292       .  A
O524       Cd527   2.170       .  S
Zn525       O536   1.886       .  S
Zn525       O538   1.886       .  S
Zn525       O530   1.723       .  S
O526        C537   1.267       .  A
O526       Cd531   1.964       .  S
Cd527       O529   1.964       .  S
Cd527       O530   1.890       .  S
Cd528       O532   2.148       .  S
Cd528       O541   1.963       .  S
Cd528       O530   1.890       .  S
O529        C539   1.267       .  A
O530       Cd531   1.890       .  S
Cd531       O533   2.170       .  S
O532        C539   1.293       .  A
C534        O538   1.257       .  A
C540        O541   1.267       .  A
O542        C558   1.257       .  A
O542       Zn548   1.908       .  S
C543        O559   1.257   1_565  A
C543        O556   1.293       .  A
O544        C557   1.293       .  A
O544       Cd551   2.172       .  S
O545        C563   1.294       .  A
O546        C560   1.294       .  A
O546       Cd550   2.156       .  S
O547        C558   1.293       .  A
O547       Cd550   2.172       .  S
Zn548       O553   1.735       .  S
O549        C560   1.267       .  A
Cd550       O553   1.881       .  S
Cd551       O564   1.958       .  S
O552        C562   1.267   1_455  A
Cd554       O556   2.172       .  S
O555        C562   1.294       .  A
C557        O561   1.257       .  A
C563        O564   1.267       .  A
