geometry optimzed in LAMMPS
_audit_creation_date              2020-12-01 
_audit_creation_method            'lammps2cif' 
_symmetry_space_group_name_H-M    'P1' 
_symmetry_Int_Tables_number       1 
_symmetry_cell_setting            triclinic 
loop_ 
_symmetry_equiv_pos_as_xyz 
  x,y,z 
_cell_length_a                    36.37737004 
_cell_length_b                    36.71005079184809 
_cell_length_c                    30.775864414724623 
_cell_angle_alpha                 89.48918402711296 
_cell_angle_beta                  90.8123770283981 
_cell_angle_gamma                 129.038302453667 
loop_ 
_atom_site_label 
_atom_site_type_symbol 
_atom_site_fract_x 
_atom_site_fract_y 
_atom_site_fract_z 
_atom_site_charge 
O1          O  0.54546199  0.58401269  0.20312317    -0.72500
O2          O  0.57832006  0.53580628  0.29995939    -0.73500
O3          O  0.58299329  0.53602352  0.20790770    -0.62100
O4          O  0.54019782  0.58335760  0.29519242    -0.70500
O5          O  0.46840138  0.51407813  0.29293654    -0.70100
O6          O  0.51012347  0.46831487  0.20559379    -0.61300
O7          O  0.50618298  0.46711138  0.29741867    -0.73900
O8          O  0.47268028  0.51598245  0.20151750    -0.72600
Cu9        Cu  0.56435827  0.56224944  0.25164644     1.04600
Cu10       Cu  0.48689342  0.48906886  0.24921364     1.04300
C11         C  0.50373312  0.55745828  0.18688556     0.93700
C12         C  0.54759812  0.49415993  0.31434681     0.92800
C13         C  0.55279626  0.49468520  0.19241252     0.84900
C14         C  0.49748449  0.55542561  0.30844089     0.91200
C15         C  0.86176433  0.48784435  0.44923704     0.03500
C16         C  0.88720302  0.50019854  0.48842286    -0.12600
C17         C  0.86360198  0.48433797  0.02804157     0.01000
C18         C  0.81436323  0.45602051  0.02882675    -0.11100
C19         C  0.78864474  0.44355071  0.49006227     0.03500
C20         C  0.81213522  0.45930211  0.45017321    -0.10600
H21         H  0.92524247  0.52039131  0.48810399     0.09100
H22         H  0.79606245  0.44327292  0.05958744     0.06700
H23         H  0.79191037  0.44849158  0.42008114     0.06500
C24         C  0.60222979  0.44323742  0.46474159     0.03500
C25         C  0.58774149  0.44822034  0.50456545    -0.12600
C26         C  0.59898321  0.43723259  0.04359340     0.01000
C27         C  0.62463576  0.42056290  0.04259942    -0.11100
C28         C  0.63915835  0.41539109  0.50265594     0.03500
C29         C  0.62827308  0.42709738  0.46386127    -0.10600
H30         H  0.56856306  0.46184486  0.50524609     0.09100
H31         H  0.63357706  0.41200997  0.07265055     0.06700
H32         H  0.63913790  0.42269571  0.43308295     0.06500
C33         C  0.73714025  0.41126926  0.99198531     0.80600
N34         N  0.71286453  0.42786654  0.99444299    -0.77700
C35         C  0.66549487  0.39777075  0.00120474     0.83100
N36         N  0.64241450  0.35111173  0.00541428    -0.77600
C37         C  0.66685401  0.33466873  0.00289725     0.83200
N38         N  0.71415804  0.36475977  0.99638381    -0.79300
C39         C  0.60894592  0.21126824  0.46817104     0.03500
C40         C  0.62945863  0.25877844  0.46672721    -0.12600
C41         C  0.64237241  0.28447380  0.00527625     0.01000
C42         C  0.63519722  0.26278018  0.04548275    -0.11100
C43         C  0.61505400  0.21537502  0.04693279     0.03500
C44         C  0.60199618  0.18983328  0.00839587    -0.10600
H45         H  0.63604593  0.27597603  0.43563284     0.09100
H46         H  0.64593308  0.28277707  0.07531429     0.06700
H47         H  0.58768957  0.15354493  0.00974557     0.06500
O48         O  0.53352307  0.07167913  0.30284351    -0.72500
O49         O  0.50624813  0.98135925  0.21111471    -0.73500
O50         O  0.50560931  0.98073520  0.30284326    -0.62100
O51         O  0.53411195  0.07259846  0.21107527    -0.70500
O52         O  0.60919129  0.10225212  0.21233330    -0.70100
O53         O  0.58065222  0.01032290  0.30511754    -0.61300
O54         O  0.58128980  0.01073612  0.21255729    -0.73900
O55         O  0.60898656  0.10216769  0.30432766    -0.72600
Cu56       Cu  0.51733056  0.02557006  0.25691285     1.04600
Cu57       Cu  0.59771587  0.05743131  0.25861114     1.04300
C58         C  0.57539626  0.10102302  0.31835213     0.93700
C59         C  0.53937868  0.98184247  0.19692809     0.92800
C60         C  0.53828686  0.98097287  0.31893347     0.84900
C61         C  0.57619475  0.10197785  0.19688523     0.91200
O62         O  0.97935879  0.50012753  0.28581713    -0.72500
O63         O  0.07820530  0.53770538  0.19759293    -0.73500
O64         O  0.07391137  0.53379417  0.28963972    -0.62100
O65         O  0.98376824  0.50377096  0.19403833    -0.70500
O66         O  0.00821945  0.57633398  0.19508663    -0.70100
O67         O  0.09965191  0.60688368  0.29024207    -0.61300
O68         O  0.10227697  0.61018299  0.19865457    -0.73900
O69         O  0.00554885  0.57337307  0.28687785    -0.72600
Cu70       Cu  0.02790453  0.51625744  0.24172413     1.04600
Cu71       Cu  0.05481086  0.59419490  0.24281031     1.04300
C72         C  0.97729641  0.53119869  0.30065590     0.93700
C73         C  0.10535411  0.57991724  0.18362187     0.92800
C74         C  0.10104139  0.57521301  0.30530619     0.84900
C75         C  0.98173398  0.53503566  0.17908220     0.91200
C76         C  0.44382765  0.60422634  0.45815569     0.03500
C77         C  0.45574186  0.59455427  0.99765125    -0.12600
C78         C  0.44795329  0.60719138  0.03706833     0.01000
C79         C  0.42883834  0.63038306  0.03711753    -0.11100
C80         C  0.41785326  0.64110254  0.99772358     0.03500
C81         C  0.42516628  0.62797940  0.45823216    -0.10600
H82         H  0.47169425  0.57765465  0.99777475     0.09100
H83         H  0.42377092  0.64119016  0.06760390     0.06700
H84         H  0.41691935  0.63661382  0.42777900     0.06500
C85         C  0.40178802  0.66880482  0.99813943     0.80600
N86         N  0.43393207  0.71599769  0.00325503    -0.77700
C87         C  0.41912764  0.74176639  0.00561275     0.83100
N88         N  0.37249555  0.72057539  0.00266893    -0.77600
C89         C  0.34043934  0.67359582  0.99737656     0.83200
N90         N  0.35491410  0.64745993  0.99515193    -0.79300
C91         C  0.22006637  0.62507028  0.45508276     0.03500
C92         C  0.26709959  0.64244057  0.45595866    -0.12600
C93         C  0.29043314  0.65167768  0.99594133     0.01000
C94         C  0.26704361  0.64400911  0.03482768    -0.11100
C95         C  0.22026065  0.62711632  0.03388519     0.03500
C96         C  0.19682739  0.61751820  0.99404614    -0.10600
H97         H  0.28538400  0.64873857  0.42585996     0.09100
H98         H  0.28540037  0.65183914  0.06568545     0.06700
H99         H  0.16025280  0.60372613  0.99334998     0.06500
C100        C  0.49275116  0.86509798  0.04801995     0.03500
C101        C  0.50937784  0.89020213  0.00878581    -0.12600
C102        C  0.49711075  0.86662176  0.46910627     0.01000
C103        C  0.46908464  0.81783248  0.46862491    -0.11100
C104        C  0.45304632  0.79263481  0.00752233     0.03500
C105        C  0.46454861  0.81606713  0.04724448    -0.10600
H106        H  0.52991757  0.92798634  0.00899162     0.09100
H107        H  0.45828567  0.79933042  0.43786446     0.06700
H108        H  0.45114931  0.79621558  0.07720896     0.06500
C109        C  0.17265137  0.63427059  0.34934363    -0.11900
C110        C  0.13397706  0.58688241  0.34146891     0.05100
C111        C  0.12662078  0.55213333  0.36948817    -0.07100
C112        C  0.15644747  0.56537659  0.40546393    -0.07900
C113        C  0.19385269  0.61271405  0.41390930    -0.02400
C114        C  0.20260193  0.64731706  0.38522000     0.04400
N115        N  0.24009639  0.69594060  0.39339673     0.66900
H116        H  0.17919219  0.66132291  0.32819603     0.15800
H117        H  0.14955675  0.53881685  0.42759729     0.15500
N118        N  0.08755096  0.50350907  0.36355740     0.74600
O119        O  0.27926775  0.71632269  0.37475828    -0.38900
O120        O  0.23124583  0.72007489  0.41205715    -0.38800
O121        O  0.09443563  0.47679436  0.34743911    -0.39500
O122        O  0.04879763  0.48594917  0.38188395    -0.39600
C123        C  0.15349628  0.63273071  0.12242742    -0.11900
C124        C  0.13889662  0.59390444  0.14813273     0.05100
C125        C  0.15444533  0.56822398  0.13750591    -0.07100
C126        C  0.18249829  0.58066987  0.10087422    -0.07900
C127        C  0.19507338  0.61812326  0.07445874    -0.02400
C128        C  0.18112428  0.64478784  0.08573401     0.04400
N129        N  0.19460895  0.68405047  0.06005017     0.66900
H130        H  0.14216019  0.65310846  0.12993021     0.15800
H131        H  0.19354010  0.56024424  0.09235064     0.15500
N132        N  0.14231155  0.52966435  0.16348247     0.74600
O133        O  0.16579030  0.67927842  0.03255096    -0.38900
O134        O  0.23116411  0.72467781  0.07038440    -0.38800
O135        O  0.11025617  0.48829396  0.15051753    -0.39500
O136        O  0.16962726  0.53683200  0.19408296    -0.39600
C137        C  0.48114175  0.91056884  0.15276983    -0.11900
C138        C  0.52867737  0.94918360  0.16157948     0.05100
C139        C  0.56430119  0.95701960  0.13478842    -0.07100
C140        C  0.55176846  0.92789395  0.09904113    -0.07900
C141        C  0.50421449  0.89076999  0.08922902    -0.02400
C142        C  0.46867820  0.88147097  0.11698167     0.04400
N143        N  0.41964062  0.84480119  0.10767136     0.66900
H144        H  0.45327553  0.90361192  0.17294736     0.15800
H145        H  0.57926080  0.93519713  0.07802136     0.15500
N146        N  0.61316468  0.99591097  0.14165215     0.74600
O147        O  0.39755461  0.80688851  0.12872136    -0.38900
O148        O  0.39658397  0.85413300  0.08638964    -0.38800
O149        O  0.64024491  0.98907019  0.15833259    -0.39500
O150        O  0.63077335  0.03446424  0.12312802    -0.39600
C151        C  0.47106118  0.88413322  0.40357595    -0.11900
C152        C  0.50825640  0.89237568  0.42811204     0.05100
C153        C  0.55517779  0.92707474  0.41493958    -0.07100
C154        C  0.56444481  0.95496230  0.37865521    -0.07900
C155        C  0.52720459  0.94813144  0.35472648    -0.02400
C156        C  0.47995304  0.91127112  0.36703142     0.04400
N157        N  0.44040651  0.90090076  0.34310559     0.66900
H158        H  0.43479452  0.85710842  0.41350238     0.15800
H159        H  0.60089703  0.98233463  0.36956481     0.15500
N160        N  0.59344295  0.93361946  0.43780556     0.74600
O161        O  0.42192467  0.87069541  0.31316672    -0.38900
O162        O  0.41860115  0.91464393  0.35730131    -0.38800
O163        O  0.59773972  0.90209718  0.43673894    -0.39500
O164        O  0.62005739  0.96858487  0.46245420    -0.39600
C165        C  0.63593688  0.20167302  0.39902171    -0.11900
C166        C  0.59880807  0.18506272  0.42777182     0.05100
C167        C  0.55362285  0.14239284  0.41888825    -0.07100
C168        C  0.54653373  0.11648145  0.38219468    -0.07900
C169        C  0.58403999  0.13208346  0.35418276    -0.02400
C170        C  0.62899867  0.17553611  0.36247185     0.04400
N171        N  0.66783004  0.19389874  0.33401672     0.66900
H172        H  0.67072070  0.23443528  0.40558715     0.15800
H173        H  0.51182430  0.08336607  0.37637942     0.15500
N174        N  0.51452265  0.12498782  0.44668509     0.74600
O175        O  0.67450021  0.21987581  0.30276475    -0.38900
O176        O  0.70029823  0.19229886  0.34519105    -0.38800
O177        O  0.48729582  0.13438197  0.43804749    -0.39500
O178        O  0.50130601  0.09240433  0.47310621    -0.39600
C179        C  0.56311010  0.16591073  0.10763269    -0.11900
C180        C  0.60759275  0.19170706  0.08840678     0.05100
C181        C  0.64253472  0.19056520  0.10642598    -0.07100
C182        C  0.63216149  0.16263398  0.14282309    -0.07900
C183        C  0.58688533  0.13498243  0.16144318    -0.02400
C184        C  0.55243022  0.13772869  0.14395071     0.04400
N185        N  0.50612393  0.11153023  0.16182837     0.66900
H186        H  0.53613678  0.16664218  0.09362215     0.15800
H187        H  0.65922561  0.16134761  0.15539810     0.15500
N188        N  0.68790590  0.21570803  0.08676285     0.74600
O189        O  0.49798587  0.13028764  0.19007112    -0.38900
O190        O  0.47186726  0.07445932  0.14315695    -0.38800
O191        O  0.72321610  0.25330701  0.10384158    -0.39500
O192        O  0.69424260  0.19606666  0.05783520    -0.39600
C193        C  0.87416061  0.46428239  0.37918624    -0.11900
C194        C  0.88719517  0.50034659  0.40777163     0.05100
C195        C  0.92779267  0.54669154  0.39896133    -0.07100
C196        C  0.95543929  0.55590439  0.36298896    -0.07900
C197        C  0.94388948  0.51957521  0.33552562    -0.02400
C198        C  0.90225680  0.47341564  0.34343224     0.04400
N199        N  0.88821991  0.43529629  0.31598523     0.66900
H200        H  0.84337187  0.42856570  0.38579449     0.15800
H201        H  0.98697645  0.59152870  0.35748874     0.15500
N202        N  0.94187919  0.58477598  0.42656027     0.74600
O203        O  0.89943375  0.41009600  0.32645527    -0.38900
O204        O  0.85682762  0.42102401  0.28715070    -0.38800
O205        O  0.97845371  0.60422292  0.45016979    -0.39500
O206        O  0.92463855  0.60531051  0.42000765    -0.39600
C207        C  0.92215973  0.54353145  0.08139328    -0.11900
C208        C  0.89079142  0.49650599  0.06853308     0.05100
C209        C  0.88729393  0.46215230  0.09333704    -0.07100
C210        C  0.91624973  0.47543392  0.12992277    -0.07900
C211        C  0.94899292  0.52279709  0.14244080    -0.02400
C212        C  0.95100910  0.55697329  0.11822243     0.04400
N213        N  0.98286581  0.60554264  0.12957989     0.66900
H214        H  0.92467386  0.56991814  0.06242853     0.15800
H215        H  0.91369109  0.44853931  0.14790705     0.15500
N216        N  0.85648837  0.41401075  0.08038822     0.74600
O217        O  0.02281528  0.63217934  0.11175031    -0.38900
O218        O  0.96742659  0.62325519  0.14953535    -0.38800
O219        O  0.87246285  0.39847006  0.05758122    -0.39500
O220        O  0.81714090  0.38555503  0.09885474    -0.39600
C221        C  0.52933008  0.44045480  0.13105159    -0.11900
C222        C  0.56580089  0.47730490  0.15744173     0.05100
C223        C  0.61318220  0.49759747  0.14819824    -0.07100
C224        C  0.62307713  0.48179140  0.11243764    -0.07900
C225        C  0.58662307  0.44667615  0.08506886    -0.02400
C226        C  0.53934153  0.42542017  0.09494748     0.04400
N227        N  0.50114000  0.38912764  0.06809888     0.66900
H228        H  0.49268846  0.42418896  0.13739322     0.15800
H229        H  0.65960263  0.49862384  0.10477480     0.15500
N230        N  0.65171980  0.53483460  0.17404379     0.74600
O231        O  0.48173021  0.34688492  0.07667463    -0.38900
O232        O  0.48059940  0.39772876  0.54292294    -0.38800
O233        O  0.67038417  0.52585864  0.20241608    -0.39500
O234        O  0.67317374  0.57675185  0.16231635    -0.39600
C235        C  0.60873513  0.50141648  0.35983882    -0.11900
C236        C  0.56052056  0.47793091  0.35112960     0.05100
C237        C  0.52622875  0.44117894  0.37893289    -0.07100
C238        C  0.54066393  0.42962292  0.41513792    -0.07900
C239        C  0.58880746  0.45399637  0.42424684    -0.02400
C240        C  0.62303640  0.48975323  0.39605330     0.04400
N241        N  0.67245287  0.51652868  0.40520711     0.66900
H242        H  0.63552301  0.52953415  0.33903130     0.15800
H243        H  0.51427387  0.40226298  0.43676310     0.15500
N244        N  0.47679772  0.41694000  0.37248324     0.74600
O245        O  0.69595908  0.50765917  0.38503845    -0.38900
O246        O  0.69398951  0.55453076  0.42594226    -0.38800
O247        O  0.45098872  0.37613987  0.35660960    -0.39500
O248        O  0.45774533  0.43186011  0.39078733    -0.39600
C249        C  0.44947696  0.53395162  0.37377061    -0.11900
C250        C  0.48161488  0.56892662  0.34409737     0.05100
C251        C  0.49856826  0.61523350  0.35040849    -0.07100
C252        C  0.48407203  0.62588730  0.38676532    -0.07900
C253        C  0.45326249  0.59102229  0.41718020    -0.02400
C254        C  0.43539834  0.54457748  0.41010109     0.04400
N255        N  0.40304002  0.50778986  0.43969014     0.66900
H256        H  0.43603932  0.49820445  0.36941702     0.15800
H257        H  0.49808309  0.66170331  0.39200124     0.15500
N258        N  0.52975056  0.65150172  0.31999698     0.74600
O259        O  0.35944234  0.48759631  0.43627557    -0.38900
O260        O  0.41652706  0.48973897  0.46317005    -0.38800
O261        O  0.51290914  0.66133278  0.29039892    -0.39500
O262        O  0.57369970  0.67923605  0.32770224    -0.39600
C263        C  0.44325931  0.55437960  0.14476612    -0.11900
C264        C  0.49094065  0.57420733  0.15062808     0.05100
C265        C  0.52476520  0.60763538  0.12038864    -0.07100
C266        C  0.51010710  0.61898356  0.08424815    -0.07900
C267        C  0.46229063  0.59789536  0.07780146    -0.02400
C268        C  0.42876731  0.56602273  0.10869972     0.04400
N269        N  0.37957967  0.54300897  0.10244920     0.66900
H270        H  0.41686949  0.52884694  0.16772292     0.15800
H271        H  0.53601924  0.64353704  0.06046816     0.15500
N272        N  0.57354710  0.62816062  0.12430170     0.74600
O273        O  0.35445485  0.50619748  0.07975596    -0.38900
O274        O  0.35986717  0.55435807  0.12560760    -0.38800
O275        O  0.58895752  0.61105456  0.10317568    -0.39500
O276        O  0.60245254  0.66797178  0.14175268    -0.39600
O277        O  0.54580335  0.58438898  0.70305444    -0.72500
O278        O  0.57883190  0.53628958  0.79987139    -0.73500
O279        O  0.58345276  0.53649680  0.70778795    -0.62100
O280        O  0.54059588  0.58373349  0.79514338    -0.70500
O281        O  0.46882849  0.51442663  0.79287310    -0.70100
O282        O  0.51062214  0.46874217  0.70554356    -0.61300
O283        O  0.50671401  0.46757474  0.79735686    -0.73900
O284        O  0.47307343  0.51629926  0.70146002    -0.72600
Cu285      Cu  0.56478830  0.56268032  0.75156154     1.04600
Cu286      Cu  0.48736164  0.48945945  0.74915478     1.04300
C287        C  0.50406973  0.55778566  0.68682677     0.93700
C288        C  0.54812496  0.49465223  0.81428741     0.92800
C289        C  0.55327776  0.49514119  0.69231826     0.84900
C290        C  0.49788534  0.55576681  0.80839767     0.91200
C291        C  0.86172888  0.48784145  0.94920519     0.03500
C292        C  0.88717287  0.50021561  0.98838955    -0.12600
C293        C  0.86362604  0.48429415  0.52807128     0.01000
C294        C  0.81438598  0.45595821  0.52885340    -0.11100
C295        C  0.78861798  0.44359504  0.99003533     0.03500
C296        C  0.81210180  0.45930899  0.95014249    -0.10600
H297        H  0.92521216  0.52040328  0.98806616     0.09100
H298        H  0.79608198  0.44318667  0.55961134     0.06700
H299        H  0.79187475  0.44848190  0.92005070     0.06500
C300        C  0.60253544  0.44365596  0.96481376     0.03500
C301        C  0.58785622  0.44843892  0.00461742    -0.12600
C302        C  0.59913359  0.43729235  0.54355214     0.01000
C303        C  0.62484051  0.42068487  0.54255754    -0.11100
C304        C  0.63917836  0.41550589  0.00271706     0.03500
C305        C  0.62855028  0.42748626  0.96394068    -0.10600
H306        H  0.56871775  0.46210571  0.00529152     0.09100
H307        H  0.63397830  0.41234300  0.57261904     0.06700
H308        H  0.63956043  0.42323939  0.93317351     0.06500
C309        C  0.73716543  0.41121105  0.49200322     0.80600
N310        N  0.71287313  0.42779332  0.49443042    -0.77700
C311        C  0.66549596  0.39768083  0.50114874     0.83100
N312        N  0.64242656  0.35102482  0.50534883    -0.77600
C313        C  0.66688225  0.33459796  0.50287520     0.83200
N314        N  0.71419344  0.36470232  0.49640079    -0.79300
C315        C  0.60900383  0.21135804  0.96819025     0.03500
C316        C  0.62948069  0.25885893  0.96674496    -0.12600
C317        C  0.64240354  0.28440469  0.50525607     0.01000
C318        C  0.63524086  0.26271281  0.54546035    -0.11100
C319        C  0.61505074  0.21529437  0.54691071     0.03500
C320        C  0.60194069  0.18973957  0.50837448    -0.10600
H321        H  0.63607879  0.27605777  0.93564960     0.09100
H322        H  0.64601226  0.28271805  0.57529041     0.06700
H323        H  0.58760232  0.15344125  0.50972151     0.06500
O324        O  0.53362338  0.07172436  0.80291062    -0.72500
O325        O  0.50633336  0.98140209  0.71118454    -0.73500
O326        O  0.50571942  0.98078110  0.80290916    -0.62100
O327        O  0.53419008  0.07263397  0.71114166    -0.70500
O328        O  0.60927162  0.10229379  0.71238531    -0.70100
O329        O  0.58076484  0.01037482  0.80516690    -0.61300
O330        O  0.58137670  0.01078256  0.71260464    -0.73900
O331        O  0.60909054  0.10222479  0.80438437    -0.72600
Cu332      Cu  0.51742477  0.02561323  0.75698242     1.04600
Cu333      Cu  0.59781272  0.05748177  0.75866345     1.04300
C334        C  0.57549849  0.10107661  0.81841196     0.93700
C335        C  0.53946076  0.98188784  0.69698446     0.92800
C336        C  0.53840063  0.98101509  0.81898257     0.84900
C337        C  0.57626778  0.10200829  0.69693829     0.91200
O338        O  0.97939262  0.50010577  0.78585001    -0.72500
O339        O  0.07824064  0.53771703  0.69760984    -0.73500
O340        O  0.07395415  0.53379132  0.78965585    -0.62100
O341        O  0.98379587  0.50375476  0.69407456    -0.70500
O342        O  0.00823109  0.57631143  0.69512309    -0.70100
O343        O  0.09967789  0.60687429  0.79027705    -0.61300
O344        O  0.10229818  0.61018888  0.69868920    -0.73900
O345        O  0.00556551  0.57334475  0.78690988    -0.72600
Cu346      Cu  0.02794077  0.51625076  0.74174999     1.04600
Cu347      Cu  0.05482966  0.59418135  0.74284590     1.04300
C348        C  0.97731684  0.53116952  0.80068501     0.93700
C349        C  0.10538051  0.57993143  0.68364383     0.92800
C350        C  0.10107821  0.57520644  0.80532954     0.84900
C351        C  0.98174952  0.53501168  0.67912064     0.91200
C352        C  0.44393220  0.60425106  0.95813913     0.03500
C353        C  0.45574932  0.59463271  0.49766083    -0.12600
C354        C  0.44803377  0.60733667  0.53707246     0.01000
C355        C  0.42890899  0.63051754  0.53713181    -0.11100
C356        C  0.41783290  0.64115608  0.49774295     0.03500
C357        C  0.42528350  0.62801469  0.95821182    -0.10600
H358        H  0.47171871  0.57774976  0.49778413     0.09100
H359        H  0.42389071  0.64136435  0.56761956     0.06700
H360        H  0.41711897  0.63672389  0.92775563     0.06500
C361        C  0.40176564  0.66885781  0.49815579     0.80600
N362        N  0.43390636  0.71604857  0.50329390    -0.77700
C363        C  0.41910109  0.74181762  0.50563515     0.83100
N364        N  0.37247169  0.72062887  0.50265641    -0.77600
C365        C  0.34041857  0.67365202  0.49734481     0.83200
N366        N  0.35489391  0.64751566  0.49513284    -0.79300
C367        C  0.22009667  0.62502158  0.95510041     0.03500
C368        C  0.26712875  0.64239076  0.95598488    -0.12600
C369        C  0.29041252  0.65173422  0.49591117     0.01000
C370        C  0.26703140  0.64407202  0.53480087    -0.11100
C371        C  0.22024881  0.62717841  0.53386724     0.03500
C372        C  0.19680636  0.61757504  0.49403308    -0.10600
H373        H  0.28542008  0.64869554  0.92588907     0.09100
H374        H  0.28539355  0.65190355  0.56565573     0.06700
H375        H  0.16023075  0.60378015  0.49334456     0.06500
C376        C  0.49274967  0.86515205  0.54804598     0.03500
C377        C  0.50933561  0.89025314  0.50880786    -0.12600
C378        C  0.49718632  0.86657461  0.96908576     0.01000
C379        C  0.46915580  0.81778404  0.96860453    -0.11100
C380        C  0.45301789  0.79268631  0.50754463     0.03500
C381        C  0.46455631  0.81612112  0.54727031    -0.10600
H382        H  0.52987324  0.92803729  0.50901381     0.09100
H383        H  0.45838147  0.79928379  0.93784460     0.06700
H384        H  0.45118928  0.79627143  0.57723715     0.06500
C385        C  0.17267958  0.63425847  0.84938235    -0.11900
C386        C  0.13401772  0.58687054  0.84148744     0.05100
C387        C  0.12667892  0.55211210  0.86948062    -0.07100
C388        C  0.15650456  0.56534481  0.90545473    -0.07900
C389        C  0.19389451  0.61268062  0.91392223    -0.02400
C390        C  0.20263221  0.64729400  0.88525518     0.04400
N391        N  0.24011985  0.69591524  0.89344961     0.66900
H392        H  0.17920973  0.66131767  0.82825308     0.15800
H393        H  0.14962410  0.53877715  0.92757019     0.15500
N394        N  0.08762878  0.50348570  0.86352421     0.74600
O395        O  0.27929571  0.71631146  0.87481539    -0.38900
O396        O  0.23126188  0.72003515  0.91212866    -0.38800
O397        O  0.09453788  0.47680365  0.84736807    -0.39500
O398        O  0.04887129  0.48588841  0.88186122    -0.39600
C399        C  0.15351570  0.63277142  0.62246012    -0.11900
C400        C  0.13891614  0.59393185  0.64814447     0.05100
C401        C  0.15445402  0.56824947  0.63748466    -0.07100
C402        C  0.18249431  0.58070568  0.60084182    -0.07900
C403        C  0.19506764  0.61817130  0.57444729    -0.02400
C404        C  0.18113096  0.64483871  0.58575479     0.04400
N405        N  0.19461465  0.68411353  0.56009231     0.66900
H406        H  0.14218800  0.65315169  0.62998810     0.15800
H407        H  0.19352869  0.56027895  0.59229344     0.15500
N408        N  0.14232051  0.52967627  0.66343769     0.74600
O409        O  0.16579752  0.67935158  0.53259802    -0.38900
O410        O  0.23116170  0.72473766  0.57044655    -0.38800
O411        O  0.11025922  0.48831278  0.65046000    -0.39500
O412        O  0.16964160  0.53682649  0.69402465    -0.39600
C413        C  0.48120928  0.91060034  0.65285103    -0.11900
C414        C  0.52874662  0.94923105  0.66162893     0.05100
C415        C  0.56435384  0.95708880  0.63479605    -0.07100
C416        C  0.55180114  0.92796606  0.59904042    -0.07900
C417        C  0.50424257  0.89082509  0.58926069    -0.02400
C418        C  0.46872514  0.88150715  0.61705402     0.04400
N419        N  0.41968253  0.84482408  0.60777692     0.66900
H420        H  0.45335611  0.90362843  0.67306012     0.15800
H421        H  0.57927929  0.93528503  0.57798939     0.15500
N422        N  0.61321647  0.99600157  0.64162435     0.74600
O423        O  0.39762923  0.80691214  0.62882425    -0.38900
O424        O  0.39659320  0.85414288  0.58653734    -0.38800
O425        O  0.64033765  0.98918759  0.65824970    -0.39500
O426        O  0.63077769  0.03455316  0.62312071    -0.39600
C427        C  0.47116276  0.88406814  0.90352312    -0.11900
C428        C  0.50835226  0.89233539  0.92809178     0.05100
C429        C  0.55528200  0.92708718  0.91496833    -0.07100
C430        C  0.56455814  0.95500437  0.87870584    -0.07900
C431        C  0.52731993  0.94815009  0.85475032    -0.02400
C432        C  0.48006516  0.91123419  0.86699919     0.04400
N433        N  0.44052509  0.90083321  0.84303453     0.66900
H434        H  0.43489090  0.85700524  0.91341124     0.15800
H435        H  0.60101354  0.98241804  0.86965488     0.15500
N436        N  0.59354734  0.93365901  0.93786416     0.74600
O437        O  0.42213046  0.87067821  0.81305498    -0.38900
O438        O  0.41863687  0.91448635  0.85722732    -0.38800
O439        O  0.59787907  0.90216069  0.93681193    -0.39500
O440        O  0.62013637  0.96863116  0.96251148    -0.39600
C441        C  0.63600989  0.20176774  0.89904138    -0.11900
C442        C  0.59888145  0.18514812  0.92779608     0.05100
C443        C  0.55370889  0.14245479  0.91893000    -0.07100
C444        C  0.54663254  0.11653108  0.88225240    -0.07900
C445        C  0.58413770  0.13214314  0.85423566    -0.02400
C446        C  0.62908322  0.17561766  0.86250496     0.04400
N447        N  0.66790952  0.19399105  0.83403999     0.66900
H448        H  0.67078413  0.23454738  0.90559296     0.15800
H449        H  0.51193231  0.08339977  0.87645169     0.15500
N450        N  0.51460725  0.12503719  0.94672962     0.74600
O451        O  0.67453726  0.21992894  0.80276737    -0.38900
O452        O  0.70040934  0.19243997  0.84521770    -0.38800
O453        O  0.48736288  0.13440932  0.93809049    -0.39500
O454        O  0.50140896  0.09246312  0.97315610    -0.39600
C455        C  0.56314357  0.16588256  0.60765195    -0.11900
C456        C  0.60760323  0.19163349  0.58838623     0.05100
C457        C  0.64254483  0.19048172  0.60638754    -0.07100
C458        C  0.63219511  0.16258935  0.64281028    -0.07900
C459        C  0.58694185  0.13498527  0.66147421    -0.02400
C460        C  0.55248677  0.13773825  0.64399585     0.04400
N461        N  0.50620524  0.11158896  0.66191898     0.66900
H462        H  0.53617178  0.16662523  0.59365779     0.15800
H463        H  0.65925702  0.16129284  0.65537089     0.15500
N464        N  0.68788995  0.21557460  0.58668277     0.74600
O465        O  0.49812634  0.13039527  0.69016213    -0.38900
O466        O  0.47191019  0.07450895  0.64328909    -0.38800
O467        O  0.72323702  0.25317448  0.60372599    -0.39500
O468        O  0.69416651  0.19588775  0.55775278    -0.39600
C469        C  0.87416696  0.46424218  0.87920357    -0.11900
C470        C  0.88715741  0.50032192  0.90774430     0.05100
C471        C  0.92772475  0.54667230  0.89890818    -0.07100
C472        C  0.95539308  0.55587971  0.86295745    -0.07900
C473        C  0.94389250  0.51953918  0.83553981    -0.02400
C474        C  0.90228401  0.47337037  0.84346921     0.04400
N475        N  0.88829404  0.43523780  0.81606744     0.66900
H476        H  0.84339929  0.42852163  0.88583473     0.15800
H477        H  0.98690766  0.59151186  0.85743869     0.15500
N478        N  0.94175860  0.58476792  0.92646219     0.74600
O479        O  0.89955756  0.41008957  0.82658696    -0.38900
O480        O  0.85689709  0.42090352  0.78722218    -0.38800
O481        O  0.97831772  0.60425832  0.95010214    -0.39500
O482        O  0.92448268  0.60526048  0.91984746    -0.39600
C483        C  0.92211458  0.54347542  0.58146557    -0.11900
C484        C  0.89081149  0.49646065  0.56856382     0.05100
C485        C  0.88736991  0.46211915  0.59333119    -0.07100
C486        C  0.91632116  0.47540506  0.62992073    -0.07900
C487        C  0.94900237  0.52276100  0.64248070    -0.02400
C488        C  0.95095574  0.55692062  0.61830173     0.04400
N489        N  0.98273121  0.60547703  0.62971344     0.66900
H490        H  0.92458094  0.56985080  0.56253093     0.15800
H491        H  0.91380783  0.44852115  0.64787419     0.15500
N492        N  0.85662337  0.41398956  0.58034417     0.74600
O493        O  0.02267511  0.63220289  0.61188529    -0.38900
O494        O  0.96721430  0.62308693  0.64972213    -0.38800
O495        O  0.87266094  0.39851158  0.55753776    -0.39500
O496        O  0.81726508  0.38548252  0.59877877    -0.39600
C497        C  0.52973915  0.44058325  0.63123423    -0.11900
C498        C  0.56627157  0.47774480  0.65734382     0.05100
C499        C  0.61366581  0.49827925  0.64782848    -0.07100
C500        C  0.62348998  0.48237359  0.61209725    -0.07900
C501        C  0.58694630  0.44692015  0.58502079    -0.02400
C502        C  0.53967481  0.42545042  0.59515718     0.04400
N503        N  0.50139777  0.38883496  0.56859041     0.66900
H504        H  0.49308554  0.42412199  0.63777467     0.15800
H505        H  0.66000630  0.49937398  0.60422052     0.15500
N506        N  0.65227960  0.53587177  0.67334423     0.74600
O507        O  0.48229600  0.34671748  0.57741783    -0.38900
O508        O  0.48066980  0.39842092  0.04244733    -0.38800
O509        O  0.67144713  0.52738264  0.70161326    -0.39500
O510        O  0.67328857  0.57764121  0.66138250    -0.39600
C511        C  0.60924329  0.50204603  0.85997161    -0.11900
C512        C  0.56103173  0.47846227  0.85112401     0.05100
C513        C  0.52670090  0.44163018  0.87884632    -0.07100
C514        C  0.54108458  0.43006758  0.91508356    -0.07900
C515        C  0.58921418  0.45451412  0.92431771    -0.02400
C516        C  0.62349258  0.49037282  0.89622595     0.04400
N517        N  0.67289198  0.51721499  0.90551085     0.66900
H518        H  0.63606165  0.53023292  0.83923688     0.15800
H519        H  0.51465687  0.40262877  0.93663077     0.15500
N520        N  0.47726603  0.41729353  0.87227413     0.74600
O521        O  0.69651345  0.50842421  0.88544333    -0.38900
O522        O  0.69431092  0.55519944  0.92625280    -0.38800
O523        O  0.45157997  0.37651225  0.85636255    -0.39500
O524        O  0.45807603  0.43210050  0.89051439    -0.39600
C525        C  0.44972410  0.53416177  0.87364465    -0.11900
C526        C  0.48197891  0.56921176  0.84407669     0.05100
C527        C  0.49899109  0.61552420  0.85050779    -0.07100
C528        C  0.48441580  0.62609777  0.88686212    -0.07900
C529        C  0.45347608  0.59114967  0.91716317    -0.02400
C530        C  0.43557320  0.54470959  0.90997606     0.04400
N531        N  0.40309803  0.50784607  0.93945387     0.66900
H532        H  0.43624284  0.49840969  0.86920825     0.15800
H533        H  0.49846422  0.66191309  0.89218798     0.15500
N534        N  0.53032472  0.65188520  0.82022763     0.74600
O535        O  0.35951678  0.48768777  0.93591927    -0.38900
O536        O  0.41648142  0.48970535  0.96294272    -0.38800
O537        O  0.51364649  0.66192778  0.79066027    -0.39500
O538        O  0.57425408  0.67948758  0.82804037    -0.39600
C539        C  0.44344080  0.55437153  0.64461243    -0.11900
C540        C  0.49119298  0.57448159  0.65058532     0.05100
C541        C  0.52500792  0.60813443  0.62046394    -0.07100
C542        C  0.51028601  0.61943837  0.58433832    -0.07900
C543        C  0.46241520  0.59808005  0.57779216    -0.02400
C544        C  0.42888493  0.56595732  0.60855558     0.04400
N545        N  0.37964635  0.54263841  0.60216264     0.66900
H546        H  0.41704795  0.52865681  0.66746581     0.15800
H547        H  0.53619556  0.64416766  0.56064394     0.15500
N548        N  0.57386506  0.62895516  0.62447865     0.74600
O549        O  0.35482458  0.50592809  0.57930901    -0.38900
O550        O  0.35960565  0.55361849  0.62531941    -0.38800
O551        O  0.58958459  0.61217814  0.60330299    -0.39500
O552        O  0.60251822  0.66871836  0.64208153    -0.39600
loop_ 
_geom_bond_atom_site_label_1 
_geom_bond_atom_site_label_2 
_geom_bond_distance 
_geom_bond_site_symmetry_2 
_ccdc_geom_bond_type 
O1           Cu9   1.996       .  S
O1           C11   1.276       .  A
O2           Cu9   1.996       .  S
O2           C12   1.278       .  A
O3           Cu9   2.017       .  S
O3           C13   1.279       .  A
O4           Cu9   2.020       .  S
O4           C14   1.279       .  A
O5          Cu10   1.983       .  S
O5           C14   1.275       .  A
O6          Cu10   1.990       .  S
O6           C13   1.276       .  A
O7          Cu10   2.001       .  S
O7           C12   1.277       .  A
O8          Cu10   1.999       .  S
O8           C11   1.278       .  A
Cu9         Cu10   2.372       .  S
C11         C264   1.474       .  S
C12         C236   1.478       .  S
C13         C222   1.482       .  S
C14         C250   1.473       .  S
C15         C194   1.478       .  S
C15          C16   1.402       .  A
C15          C20   1.406       .  A
C16         C293   1.397       .  A
C16          H21   1.083       .  S
C17         C208   1.466       .  S
C17          C18   1.395       .  A
C17         C292   1.397   1_554  A
C18         C295   1.397   1_554  A
C18          H22   1.084       .  S
C19         C309   1.456       .  S
C19          C20   1.402       .  A
C19         C294   1.397       .  A
C20          H23   1.084       .  S
C24         C239   1.471       .  S
C24          C25   1.399       .  A
C24          C29   1.399       .  A
C25         C302   1.400       .  A
C25          H30   1.085       .  S
C26         C225   1.474       .  S
C26          C27   1.402       .  A
C26         C301   1.400       .  A
C27         C304   1.403       .  A
C27          H31   1.084       .  S
C28         C311   1.459       .  S
C28          C29   1.400       .  A
C28         C303   1.402       .  A
C29          H32   1.083       .  S
C33         C295   1.456       .  S
C33          N34   1.355       .  A
C33          N38   1.354       .  A
N34          C35   1.357   1_556  A
C35         C304   1.459       .  S
C35          N36   1.358       .  A
N36          C37   1.356       .  A
C37          C41   1.458       .  S
C37          N38   1.354   1_554  A
C39         C166   1.473       .  S
C39          C40   1.400       .  A
C39         C320   1.399       .  A
C40         C317   1.400       .  A
C40          H45   1.085       .  S
C41          C42   1.401       .  A
C41         C316   1.400   1_554  A
C42          C43   1.400       .  A
C42          H46   1.084       .  S
C43         C180   1.467       .  S
C43          C44   1.398       .  A
C44         C315   1.399   1_554  A
C44          H47   1.083       .  S
O48         Cu56   1.993       .  S
O48          C58   1.277       .  A
O49         Cu56   1.996   1_565  S
O49          C59   1.277       .  A
O50         Cu56   1.995   1_565  S
O50          C60   1.276       .  A
O51         Cu56   1.999       .  S
O51          C61   1.276       .  A
O52         Cu57   2.005       .  S
O52          C61   1.279       .  A
O53         Cu57   2.013       .  S
O53          C60   1.279   1_545  A
O54         Cu57   2.008       .  S
O54          C59   1.278   1_545  A
O55         Cu57   2.005       .  S
O55          C58   1.277       .  A
Cu56        Cu57   2.369       .  S
C58         C169   1.475       .  S
C59         C138   1.482       .  S
C60         C155   1.485       .  S
C61         C183   1.485       .  S
O62         Cu70   2.012   1_655  S
O62          C72   1.278       .  A
O63         Cu70   2.012       .  S
O63          C73   1.278       .  A
O64         Cu70   1.995       .  S
O64          C74   1.276       .  A
O65         Cu70   1.990   1_655  S
O65          C75   1.277       .  A
O66         Cu71   2.002       .  S
O66          C75   1.276   1_455  A
O67         Cu71   1.999       .  S
O67          C74   1.278       .  A
O68         Cu71   1.987       .  S
O68          C73   1.276       .  A
O69         Cu71   1.990       .  S
O69          C72   1.276   1_455  A
Cu70        Cu71   2.370       .  S
C72         C197   1.479       .  S
C73         C124   1.478       .  S
C74         C110   1.477       .  S
C75         C211   1.480       .  S
C76         C253   1.475       .  S
C76          C81   1.402       .  A
C76         C353   1.400       .  A
C77          C78   1.397   1_556  A
C77         C352   1.400       .  A
C77          H82   1.084       .  S
C78         C267   1.469       .  S
C78          C79   1.398       .  A
C79          C80   1.400   1_554  A
C79          H83   1.084       .  S
C80          C85   1.458       .  S
C80         C357   1.402       .  A
C81         C356   1.402       .  A
C81          H84   1.084       .  S
C85          N86   1.357   1_556  A
C85          N90   1.358       .  A
N86          C87   1.354       .  A
C87         C104   1.453       .  S
C87          N88   1.351       .  A
N88          C89   1.352   1_554  A
C89          C93   1.454       .  S
C89          N90   1.357       .  A
C91         C113   1.467       .  S
C91          C92   1.400       .  A
C91         C372   1.399       .  A
C92         C369   1.400       .  A
C92          H97   1.083       .  S
C93          C94   1.399   1_556  A
C93         C368   1.400       .  A
C94          C95   1.397       .  A
C94          H98   1.084       .  S
C95         C127   1.467       .  S
C95          C96   1.398   1_554  A
C96         C367   1.399       .  A
C96          H99   1.085       .  S
C100        C141   1.477       .  S
C100        C101   1.404       .  A
C100        C105   1.402       .  A
C101        C378   1.400   1_554  A
C101        H106   1.085       .  S
C102        C152   1.470       .  S
C102        C103   1.395       .  A
C102        C377   1.400       .  A
C103        C380   1.396       .  A
C103        H107   1.085       .  S
C104        C105   1.400       .  A
C104        C379   1.396   1_554  A
C105        H108   1.083       .  S
C109        C110   1.407       .  A
C109        C114   1.398       .  A
C109        H116   1.078       .  S
C110        C111   1.414       .  A
C111        C112   1.397       .  A
C111        N118   1.429       .  S
C112        C113   1.399       .  A
C112        H117   1.078       .  S
C113        C114   1.405       .  A
C114        N115   1.429       .  S
N115        O119   1.262       .  A
N115        O120   1.262       .  A
N118        O122   1.262       .  A
N118        O121   1.262       .  A
C123        C124   1.406       .  A
C123        C128   1.394       .  A
C123        H130   1.085       .  S
C124        C125   1.414       .  A
C125        C126   1.399       .  A
C125        N132   1.428       .  S
C126        C127   1.400       .  A
C126        H131   1.085       .  S
C127        C128   1.405       .  A
C128        N129   1.429       .  S
N129        O133   1.262       .  A
N129        O134   1.262       .  A
N132        O136   1.262       .  A
N132        O135   1.262       .  A
C137        C138   1.407       .  A
C137        C142   1.399       .  A
C137        H144   1.080       .  S
C138        C139   1.414       .  A
C139        C140   1.398       .  A
C139        N146   1.428       .  S
C140        C141   1.401       .  A
C140        H145   1.081       .  S
C141        C142   1.410       .  A
C142        N143   1.430       .  S
N143        O147   1.262       .  A
N143        O148   1.262       .  A
N146        O150   1.262   1_565  A
N146        O149   1.262       .  A
C151        C152   1.397       .  A
C151        C156   1.395       .  A
C151        H158   1.084       .  S
C152        C153   1.404       .  A
C153        C154   1.402       .  A
C153        N160   1.430       .  S
C154        C155   1.410       .  A
C154        H159   1.083       .  S
C155        C156   1.417       .  A
C156        N157   1.429       .  S
N157        O161   1.262       .  A
N157        O162   1.262       .  A
N160        O164   1.262       .  A
N160        O163   1.262       .  A
C165        C166   1.402       .  A
C165        C170   1.398       .  A
C165        H172   1.081       .  S
C166        C167   1.408       .  A
C167        C168   1.396       .  A
C167        N174   1.429       .  S
C168        C169   1.405       .  A
C168        H173   1.081       .  S
C169        C170   1.412       .  A
C170        N171   1.429       .  S
N171        O175   1.262       .  A
N171        O176   1.262       .  A
N174        O178   1.262       .  A
N174        O177   1.262       .  A
C179        C180   1.397       .  A
C179        C184   1.399       .  A
C179        H186   1.082       .  S
C180        C181   1.404       .  A
C181        C182   1.397       .  A
C181        N188   1.429       .  S
C182        C183   1.408       .  A
C182        H187   1.081       .  S
C183        C184   1.418       .  A
C184        N185   1.429       .  S
N185        O189   1.262       .  A
N185        O190   1.262       .  A
N188        O192   1.262       .  A
N188        O191   1.262       .  A
C193        C194   1.403       .  A
C193        C198   1.401       .  A
C193        H200   1.080       .  S
C194        C195   1.410       .  A
C195        C196   1.396       .  A
C195        N202   1.430       .  S
C196        C197   1.405       .  A
C196        H201   1.080       .  S
C197        C198   1.412       .  A
C198        N199   1.429       .  S
N199        O203   1.262       .  A
N199        O204   1.262       .  A
N202        O206   1.262       .  A
N202        O205   1.262       .  A
C207        C208   1.399       .  A
C207        C212   1.398       .  A
C207        H214   1.080       .  S
C208        C209   1.405       .  A
C209        C210   1.394       .  A
C209        N216   1.429       .  S
C210        C211   1.407       .  A
C210        H215   1.080       .  S
C211        C212   1.416       .  A
C212        N213   1.429       .  S
N213        O217   1.262   1_655  A
N213        O218   1.262       .  A
N216        O220   1.262       .  A
N216        O219   1.262       .  A
C221        C222   1.406       .  A
C221        C226   1.396       .  A
C221        H228   1.084       .  S
C222        C223   1.414       .  A
C223        C224   1.401       .  A
C223        N230   1.428       .  S
C224        C225   1.401       .  A
C224        H229   1.084       .  S
C225        C226   1.407       .  A
C226        N227   1.430       .  S
N227        O231   1.262       .  A
N227        O508   1.262       .  A
N230        O234   1.262       .  A
N230        O233   1.262       .  A
O232        N503   1.262       .  A
C235        C236   1.406       .  A
C235        C240   1.397       .  A
C235        H242   1.079       .  S
C236        C237   1.414       .  A
C237        C238   1.397       .  A
C237        N244   1.429       .  S
C238        C239   1.401       .  A
C238        H243   1.079       .  S
C239        C240   1.406       .  A
C240        N241   1.429       .  S
N241        O245   1.262       .  A
N241        O246   1.262       .  A
N244        O248   1.262       .  A
N244        O247   1.262       .  A
C249        C250   1.403       .  A
C249        C254   1.393       .  A
C249        H256   1.083       .  S
C250        C251   1.411       .  A
C251        C252   1.403       .  A
C251        N258   1.429       .  S
C252        C253   1.404       .  A
C252        H257   1.082       .  S
C253        C254   1.408       .  A
C254        N255   1.430       .  S
N255        O259   1.262       .  A
N255        O260   1.262       .  A
N258        O262   1.262       .  A
N258        O261   1.262       .  A
C263        C264   1.405       .  A
C263        C268   1.397       .  A
C263        H270   1.083       .  S
C264        C265   1.413       .  A
C265        C266   1.396       .  A
C265        N272   1.429       .  S
C266        C267   1.400       .  A
C266        H271   1.084       .  S
C267        C268   1.406       .  A
C268        N269   1.429       .  S
N269        O273   1.262       .  A
N269        O274   1.262       .  A
N272        O276   1.262       .  A
N272        O275   1.262       .  A
O277       Cu285   1.996       .  S
O277        C287   1.276       .  A
O278       Cu285   1.997       .  S
O278        C288   1.278       .  A
O279       Cu285   2.018       .  S
O279        C289   1.279       .  A
O280       Cu285   2.020       .  S
O280        C290   1.279       .  A
O281       Cu286   1.983       .  S
O281        C290   1.275       .  A
O282       Cu286   1.989       .  S
O282        C289   1.276       .  A
O283       Cu286   2.001       .  S
O283        C288   1.277       .  A
O284       Cu286   1.998       .  S
O284        C287   1.278       .  A
Cu285      Cu286   2.372       .  S
C287        C540   1.474       .  S
C288        C512   1.478       .  S
C289        C498   1.482       .  S
C290        C526   1.474       .  S
C291        C470   1.477       .  S
C291        C292   1.402       .  A
C291        C296   1.406       .  A
C292        H297   1.083       .  S
C293        C484   1.466       .  S
C293        C294   1.395       .  A
C294        H298   1.084       .  S
C295        C296   1.402       .  A
C296        H299   1.084       .  S
C300        C515   1.471       .  S
C300        C301   1.399   1_556  A
C300        C305   1.399       .  A
C301        H306   1.085       .  S
C302        C501   1.474       .  S
C302        C303   1.402       .  A
C303        H307   1.084       .  S
C304        C305   1.400   1_554  A
C305        H308   1.083       .  S
C309        N310   1.355       .  A
C309        N314   1.354       .  A
N310        C311   1.357       .  A
C311        N312   1.358       .  A
N312        C313   1.356       .  A
C313        C317   1.458       .  S
C313        N314   1.354       .  A
C315        C442   1.473       .  S
C315        C316   1.400       .  A
C316        H321   1.085       .  S
C317        C318   1.401       .  A
C318        C319   1.400       .  A
C318        H322   1.084       .  S
C319        C456   1.467       .  S
C319        C320   1.398       .  A
C320        H323   1.083       .  S
O324       Cu332   1.993       .  S
O324        C334   1.277       .  A
O325       Cu332   1.996   1_565  S
O325        C335   1.277       .  A
O326       Cu332   1.995   1_565  S
O326        C336   1.276       .  A
O327       Cu332   1.999       .  S
O327        C337   1.276       .  A
O328       Cu333   2.005       .  S
O328        C337   1.279       .  A
O329       Cu333   2.013       .  S
O329        C336   1.279   1_545  A
O330       Cu333   2.008       .  S
O330        C335   1.278   1_545  A
O331       Cu333   2.006       .  S
O331        C334   1.277       .  A
Cu332      Cu333   2.369       .  S
C334        C445   1.475       .  S
C335        C414   1.482       .  S
C336        C431   1.485       .  S
C337        C459   1.485       .  S
O338       Cu346   2.012   1_655  S
O338        C348   1.278       .  A
O339       Cu346   2.012       .  S
O339        C349   1.278       .  A
O340       Cu346   1.995       .  S
O340        C350   1.276       .  A
O341       Cu346   1.990   1_655  S
O341        C351   1.277       .  A
O342       Cu347   2.002       .  S
O342        C351   1.276   1_455  A
O343       Cu347   1.999       .  S
O343        C350   1.278       .  A
O344       Cu347   1.987       .  S
O344        C349   1.276       .  A
O345       Cu347   1.990       .  S
O345        C348   1.276   1_455  A
Cu346      Cu347   2.370       .  S
C348        C473   1.479       .  S
C349        C400   1.478       .  S
C350        C386   1.477       .  S
C351        C487   1.480       .  S
C352        C529   1.475       .  S
C352        C357   1.402       .  A
C353        C354   1.397       .  A
C353        H358   1.084       .  S
C354        C543   1.469       .  S
C354        C355   1.398       .  A
C355        C356   1.400       .  A
C355        H359   1.084       .  S
C356        C361   1.458       .  S
C357        H360   1.084       .  S
C361        N362   1.357       .  A
C361        N366   1.358       .  A
N362        C363   1.354       .  A
C363        C380   1.453       .  S
C363        N364   1.351       .  A
N364        C365   1.352       .  A
C365        C369   1.454       .  S
C365        N366   1.357       .  A
C367        C389   1.467       .  S
C367        C368   1.400       .  A
C368        H373   1.083       .  S
C369        C370   1.399       .  A
C370        C371   1.397       .  A
C370        H374   1.084       .  S
C371        C403   1.467       .  S
C371        C372   1.398       .  A
C372        H375   1.085       .  S
C376        C417   1.477       .  S
C376        C377   1.404       .  A
C376        C381   1.402       .  A
C377        H382   1.085       .  S
C378        C428   1.470       .  S
C378        C379   1.396       .  A
C379        H383   1.085       .  S
C380        C381   1.400       .  A
C381        H384   1.083       .  S
C385        C386   1.407       .  A
C385        C390   1.398       .  A
C385        H392   1.078       .  S
C386        C387   1.414       .  A
C387        C388   1.397       .  A
C387        N394   1.429       .  S
C388        C389   1.399       .  A
C388        H393   1.078       .  S
C389        C390   1.405       .  A
C390        N391   1.429       .  S
N391        O395   1.262       .  A
N391        O396   1.262       .  A
N394        O398   1.262       .  A
N394        O397   1.262       .  A
C399        C400   1.406       .  A
C399        C404   1.394       .  A
C399        H406   1.085       .  S
C400        C401   1.414       .  A
C401        C402   1.399       .  A
C401        N408   1.428       .  S
C402        C403   1.400       .  A
C402        H407   1.085       .  S
C403        C404   1.405       .  A
C404        N405   1.429       .  S
N405        O409   1.262       .  A
N405        O410   1.262       .  A
N408        O412   1.262       .  A
N408        O411   1.262       .  A
C413        C414   1.407       .  A
C413        C418   1.399       .  A
C413        H420   1.080       .  S
C414        C415   1.414       .  A
C415        C416   1.398       .  A
C415        N422   1.428       .  S
C416        C417   1.401       .  A
C416        H421   1.081       .  S
C417        C418   1.410       .  A
C418        N419   1.430       .  S
N419        O423   1.262       .  A
N419        O424   1.262       .  A
N422        O426   1.262   1_565  A
N422        O425   1.262       .  A
C427        C428   1.397       .  A
C427        C432   1.395       .  A
C427        H434   1.084       .  S
C428        C429   1.404       .  A
C429        C430   1.402       .  A
C429        N436   1.430       .  S
C430        C431   1.410       .  A
C430        H435   1.083       .  S
C431        C432   1.417       .  A
C432        N433   1.429       .  S
N433        O437   1.262       .  A
N433        O438   1.262       .  A
N436        O440   1.262       .  A
N436        O439   1.262       .  A
C441        C442   1.402       .  A
C441        C446   1.399       .  A
C441        H448   1.081       .  S
C442        C443   1.408       .  A
C443        C444   1.396       .  A
C443        N450   1.429       .  S
C444        C445   1.405       .  A
C444        H449   1.081       .  S
C445        C446   1.412       .  A
C446        N447   1.429       .  S
N447        O451   1.262       .  A
N447        O452   1.262       .  A
N450        O454   1.262       .  A
N450        O453   1.262       .  A
C455        C456   1.397       .  A
C455        C460   1.399       .  A
C455        H462   1.082       .  S
C456        C457   1.404       .  A
C457        C458   1.397       .  A
C457        N464   1.429       .  S
C458        C459   1.408       .  A
C458        H463   1.081       .  S
C459        C460   1.418       .  A
C460        N461   1.429       .  S
N461        O465   1.262       .  A
N461        O466   1.262       .  A
N464        O468   1.262       .  A
N464        O467   1.262       .  A
C469        C470   1.403       .  A
C469        C474   1.401       .  A
C469        H476   1.080       .  S
C470        C471   1.410       .  A
C471        C472   1.396       .  A
C471        N478   1.430       .  S
C472        C473   1.405       .  A
C472        H477   1.080       .  S
C473        C474   1.412       .  A
C474        N475   1.429       .  S
N475        O479   1.262       .  A
N475        O480   1.262       .  A
N478        O482   1.262       .  A
N478        O481   1.262       .  A
C483        C484   1.399       .  A
C483        C488   1.398       .  A
C483        H490   1.080       .  S
C484        C485   1.405       .  A
C485        C486   1.394       .  A
C485        N492   1.429       .  S
C486        C487   1.407       .  A
C486        H491   1.080       .  S
C487        C488   1.416       .  A
C488        N489   1.429       .  S
N489        O493   1.262   1_655  A
N489        O494   1.262       .  A
N492        O496   1.262       .  A
N492        O495   1.262       .  A
C497        C498   1.407       .  A
C497        C502   1.395       .  A
C497        H504   1.084       .  S
C498        C499   1.414       .  A
C499        C500   1.401       .  A
C499        N506   1.428       .  S
C500        C501   1.401       .  A
C500        H505   1.084       .  S
C501        C502   1.407       .  A
C502        N503   1.430       .  S
N503        O507   1.262       .  A
N506        O510   1.262       .  A
N506        O509   1.262       .  A
C511        C512   1.406       .  A
C511        C516   1.397       .  A
C511        H518   1.079       .  S
C512        C513   1.414       .  A
C513        C514   1.397       .  A
C513        N520   1.429       .  S
C514        C515   1.401       .  A
C514        H519   1.079       .  S
C515        C516   1.406       .  A
C516        N517   1.429       .  S
N517        O521   1.262       .  A
N517        O522   1.262       .  A
N520        O524   1.262       .  A
N520        O523   1.262       .  A
C525        C526   1.403       .  A
C525        C530   1.393       .  A
C525        H532   1.083       .  S
C526        C527   1.411       .  A
C527        C528   1.403       .  A
C527        N534   1.429       .  S
C528        C529   1.404       .  A
C528        H533   1.082       .  S
C529        C530   1.408       .  A
C530        N531   1.430       .  S
N531        O535   1.262       .  A
N531        O536   1.262       .  A
N534        O538   1.262       .  A
N534        O537   1.262       .  A
C539        C540   1.405       .  A
C539        C544   1.397       .  A
C539        H546   1.083       .  S
C540        C541   1.413       .  A
C541        C542   1.396       .  A
C541        N548   1.429       .  S
C542        C543   1.400       .  A
C542        H547   1.084       .  S
C543        C544   1.406       .  A
C544        N545   1.429       .  S
N545        O549   1.262       .  A
N545        O550   1.262       .  A
N548        O552   1.262       .  A
N548        O551   1.262       .  A
