geometry optimzed in LAMMPS
_audit_creation_date              2020-12-01 
_audit_creation_method            'lammps2cif' 
_symmetry_space_group_name_H-M    'P1' 
_symmetry_Int_Tables_number       1 
_symmetry_cell_setting            triclinic 
loop_ 
_symmetry_equiv_pos_as_xyz 
  x,y,z 
_cell_length_a                    35.76377863 
_cell_length_b                    39.310188922886034 
_cell_length_c                    30.404939113738262 
_cell_angle_alpha                 89.80769608479541 
_cell_angle_beta                  90.55402738705546 
_cell_angle_gamma                 119.99174991921808 
loop_ 
_atom_site_label 
_atom_site_type_symbol 
_atom_site_fract_x 
_atom_site_fract_y 
_atom_site_fract_z 
_atom_site_charge 
N1          N  0.04814304  0.12769642  0.38252776    -0.02600
C2          C  0.04615546  0.15996682  0.36936403     0.00000
C3          C  0.03471628  0.17517199  0.40423905    -0.22900
C4          C  0.03254534  0.15348187  0.44048921    -0.23100
C5          C  0.04189275  0.12505994  0.42676449    -0.00100
H6          H  0.03508185  0.20287445  0.40486699     0.13700
H7          H  0.02955935  0.16067083  0.47409938     0.13700
N8          N  0.11803164  0.49029056  0.38845532    -0.02600
C9          C  0.15071218  0.48353678  0.37861680     0.00000
C10         C  0.17897276  0.49429414  0.41404654    -0.22900
C11         C  0.16202422  0.50617935  0.44703977    -0.23100
C12         C  0.12434030  0.50308821  0.43057995    -0.00100
H13         H  0.20544999  0.48855377  0.41782082     0.13700
H14         H  0.17314819  0.51177808  0.48088594     0.13700
C15         C  0.17763727  0.36821835  0.29473339     0.04000
C16         C  0.14838349  0.32796786  0.28946462    -0.12200
C17         C  0.16292622  0.30117536  0.28237266     0.01500
C18         C  0.20733735  0.31609873  0.27458474    -0.10700
C19         C  0.23802122  0.35603058  0.28260901     0.04000
C20         C  0.22211250  0.38164898  0.29218966    -0.10100
H21         H  0.11436273  0.31725122  0.29424522     0.09600
H22         H  0.21771114  0.29575151  0.26494384     0.07100
H23         H  0.24420644  0.41188455  0.30107892     0.06900
N24         N  0.43233396  0.44004748  0.38310641    -0.02600
C25         C  0.38954467  0.41816142  0.37350322     0.00000
C26         C  0.36539862  0.41151123  0.41118998    -0.22900
C27         C  0.39399667  0.42984874  0.44509273    -0.23100
C28         C  0.43447797  0.44691706  0.42688732    -0.00100
H29         H  0.33054352  0.39535515  0.41351980     0.13700
H30         H  0.38620157  0.43024400  0.47932757     0.13700
O31         O  0.07164686  0.12189231  0.49484412    -0.80000
O32         O  0.07271413  0.48773395  0.11304986    -0.64700
O33         O  0.09436715  0.06542239  0.02365541    -1.11300
C34         C  0.47387577  0.46656657  0.45323729     1.06900
O35         O  0.04626493  0.43645730  0.06753940    -0.77900
O36         O  0.07773016  0.47197896  0.48948544    -0.65500
Ni37       Ni  0.10809283  0.11769194  0.03917610     1.34900
C38         C  0.08913999  0.49762923  0.45943608     0.85600
O39         O  0.13684415  0.06148211  0.10125281    -0.78500
O40         O  0.14764899  0.12127334  0.08468168    -0.88700
C41         C  0.06161250  0.45204904  0.10478219     0.85200
O42         O  0.06138624  0.10134132  0.07850138    -0.66900
O43         O  0.49411012  0.44841644  0.46189371    -0.86200
C44         C  0.04257656  0.07219658  0.10405299     0.86000
C45         C  0.15757058  0.09869215  0.10547238     1.07600
H46         H  0.00645455  0.49065253  0.05538034     0.39400
O47         O  0.03120920  0.49561262  0.03810568    -1.08900
O48         O  0.07004534  0.01715847  0.45275543    -0.65500
Ni49       Ni  0.04054027  0.03339316  0.49384314     1.26300
O50         O  0.05216935  0.04497060  0.10674167    -0.65800
O51         O  0.48590138  0.50055181  0.46772198    -0.78100
C52         C  0.05526853  0.10471584  0.45855856     0.85400
O53         O  0.04938091  0.07111648  0.45016031    -0.65200
Ni54       Ni  0.02234863  0.44661508  0.01590161     1.27400
Ni55       Ni  0.08390340  0.02799378  0.06994814     1.26100
H56         H  0.11794107  0.06787377  0.50615533     0.39900
O57         O  0.06530034  0.44537263  0.25007502    -0.80000
O58         O  0.05406152  0.07132367  0.36458165    -0.64700
O59         O  0.03213180  0.49351931  0.27619592    -1.11300
C60         C  0.14905134  0.10140403  0.20559771     1.06900
O61         O  0.05278572  0.10865479  0.31149525    -0.77900
O62         O  0.04965669  0.09339461  0.22695175    -0.65500
Ni63       Ni  0.02178632  0.44235640  0.29006028     1.34900
C64         C  0.03278207  0.06282382  0.20322702     0.85600
O65         O  0.49312959  0.49442273  0.35533834    -0.78500
O66         O  0.47607619  0.43451412  0.33002983    -0.88700
C67         C  0.05328145  0.10198578  0.35220097     0.85200
O68         O  0.06362129  0.45677960  0.33637256    -0.66900
O69         O  0.13769719  0.12241273  0.22721621    -0.86200
C70         C  0.08503078  0.48780166  0.35901550     0.86000
C71         C  0.46871385  0.45714056  0.35408522     1.07600
H72         H  0.11695103  0.07116145  0.30181511     0.39400
O73         O  0.09047346  0.06489148  0.28647722    -1.08900
O74         O  0.04379219  0.03695881  0.20464016    -0.65500
Ni75       Ni  0.08124679  0.02769067  0.24151533     1.26300
O76         O  0.07945095  0.01740904  0.35620606    -0.65800
O77         O  0.13030177  0.06404891  0.20786661    -0.78100
C78         C  0.07311740  0.45821275  0.21069706     0.85400
O79         O  0.07168498  0.48845089  0.19956163    -0.65200
Ni80       Ni  0.09471010  0.11340302  0.26985300     1.27400
Ni81       Ni  0.04244392  0.03045853  0.32194978     1.26100
H82         H  0.00628439  0.48923463  0.26100152     0.39900
N83         N  0.19283218  0.11671322  0.13639907    -0.02600
C84         C  0.23337967  0.14540412  0.12616566     0.00000
C85         C  0.25420206  0.16825778  0.16257977    -0.22900
C86         C  0.22537750  0.15404964  0.19632685    -0.23100
C87         C  0.18825961  0.12261951  0.17948141    -0.00100
H88         H  0.28752470  0.19159218  0.16474913     0.13700
H89         H  0.23092963  0.16517407  0.22968620     0.10900
N90         N  0.00731532  0.06877877  0.12961396    -0.02600
C91         C  0.97556696  0.07552138  0.11553801     0.00000
C92         C  0.94608335  0.06676639  0.14893644    -0.22900
C93         C  0.96135647  0.05595723  0.18493225    -0.23100
C94         C  0.99917894  0.05773319  0.17206137    -0.00100
H95         H  0.91997475  0.07319834  0.14919565     0.13700
H96         H  0.94899321  0.05182164  0.21805517     0.13700
C97         C  0.45009550  0.18766747  0.02710499     0.04000
C98         C  0.47463718  0.22886806  0.03012880    -0.12200
C99         C  0.45472104  0.25161684  0.03650445     0.01500
C100        C  0.40926420  0.23261614  0.03540737    -0.10700
C101        C  0.38400475  0.19147134  0.03119978     0.04000
C102        C  0.40494332  0.16993017  0.02380355    -0.10100
H103        H  0.00943964  0.24288876  0.03171023     0.09600
H104        H  0.39352793  0.24956381  0.04113309     0.07100
H105        H  0.38557734  0.13841182  0.02041719     0.06900
N106        N  0.07005132  0.42874476  0.13617848    -0.02600
C107        C  0.07125051  0.39573911  0.12512763     0.00000
C108        C  0.08995053  0.38547954  0.15868232    -0.22900
C109        C  0.09839413  0.41151088  0.19236262    -0.23100
C110        C  0.08473073  0.43712724  0.17847313    -0.00100
H111        H  0.09140336  0.35867533  0.16096834     0.13700
H112        H  0.10834907  0.40890438  0.22535131     0.13700
C113        C  0.48148169  0.29314031  0.05268643    -0.04600
C114        C  0.02361630  0.31725868  0.03654771    -0.32000
C115        C  0.05294211  0.35229691  0.05812562     0.37200
C116        C  0.03978965  0.36488570  0.09503180    -0.05000
C117        C  0.49692206  0.34292283  0.10884058    -0.31900
C118        C  0.46818094  0.30704854  0.08890953     0.37100
H119        H  0.03470810  0.30784134  0.00858098     0.17500
O120        O  0.09470524  0.37332736  0.04380314    -0.59400
H121        H  0.48670499  0.35195996  0.13784473     0.17500
O122        O  0.42858225  0.28452200  0.10787573    -0.59500
H123        H  0.43255358  0.26736306  0.12914091     0.44500
H124        H  0.11024990  0.36176603  0.05929553     0.44500
C125        C  0.46911734  0.16235203  0.03889555    -0.04600
C126        C  0.45002649  0.12363502  0.02227168    -0.32000
C127        C  0.45521368  0.09481398  0.04430561     0.37200
C128        C  0.48144294  0.10495198  0.08205943    -0.05000
C129        C  0.00574948  0.14437743  0.09450600    -0.31900
C130        C  0.99915718  0.17285529  0.07421572     0.37100
H131        H  0.42803446  0.11481745  0.99441691     0.17500
O132        O  0.43154758  0.05637028  0.03114867    -0.59400
H133        H  0.02600345  0.15236551  0.12375489     0.17500
O134        O  0.01851099  0.20950734  0.09295696    -0.59500
H135        H  0.99869288  0.20788494  0.11653016     0.44500
H136        H  0.44994926  0.05288780  0.00951279     0.44500
C137        C  0.25855421  0.14554352  0.08814866    -0.04600
C138        C  0.28084173  0.12502258  0.09335477    -0.32000
C139        C  0.32057235  0.13805007  0.07310313     0.37200
C140        C  0.33744805  0.17083226  0.04425399    -0.05000
C141        C  0.31163208  0.18770091  0.03444545    -0.31900
C142        C  0.27294373  0.17583584  0.05691634     0.37100
H143        H  0.27061742  0.10233321  0.11823877     0.17500
O144        O  0.34454302  0.12132036  0.08624966    -0.59400
H145        H  0.32319277  0.21235987  0.01209223     0.17500
O146        O  0.25213292  0.19693024  0.05186188    -0.59500
H147        H  0.22862395  0.18180887  0.03028058     0.44500
H148        H  0.36245260  0.13756909  0.11132526     0.44500
C149        C  0.28582434  0.37046559  0.28883519    -0.04600
C150        C  0.31609926  0.41102448  0.28475191    -0.32000
C151        C  0.35647749  0.42791037  0.30616842     0.37200
C152        C  0.36809279  0.40408477  0.33036609    -0.05000
C153        C  0.34266600  0.36337286  0.32591002    -0.31900
C154        C  0.30132531  0.34633540  0.30683275     0.37100
H155        H  0.30706785  0.43048665  0.26863550     0.17500
O156        O  0.38116503  0.46801469  0.30894335    -0.59400
H157        H  0.35159694  0.34460908  0.34394480     0.17500
O158        O  0.27544455  0.30647384  0.31029955    -0.59500
H159        H  0.27128467  0.30095172  0.34229234     0.44500
H160        H  0.40390105  0.47546877  0.28651287     0.44500
C161        C  0.16274717  0.39568156  0.30959671    -0.04600
C162        C  0.18181094  0.43399928  0.29225875    -0.32000
C163        C  0.17462010  0.46264417  0.31149823     0.37200
C164        C  0.14724870  0.45298201  0.34791530    -0.05000
C165        C  0.12531748  0.41404672  0.36278569    -0.31900
C166        C  0.13341566  0.38571738  0.34468637     0.37100
H167        H  0.20422650  0.44231940  0.26523128     0.17500
O168        O  0.19710427  0.50061630  0.29673034    -0.59400
H169        H  0.10511168  0.40651894  0.39162965     0.17500
O170        O  0.11553377  0.34956521  0.36443215    -0.59500
H171        H  0.13707876  0.35187882  0.38678552     0.44500
H172        H  0.17680818  0.50351391  0.27672071     0.44500
C173        C  0.07400362  0.18721899  0.33462389    -0.04600
C174        C  0.11844096  0.20224108  0.33913095    -0.32000
C175        C  0.14783506  0.23795635  0.31994604     0.37200
C176        C  0.13331039  0.25851405  0.29287157    -0.05000
C177        C  0.08855794  0.24050770  0.28394180    -0.31900
C178        C  0.05898772  0.20561776  0.30534958     0.37100
H179        H  0.13049777  0.18884776  0.36224655     0.17500
O180        O  0.19013791  0.25454457  0.33274470    -0.59400
H181        H  0.07616686  0.25499455  0.26294310     0.17500
O182        O  0.01556126  0.19150258  0.30013333    -0.59500
H183        H  0.00565375  0.16952036  0.27886930     0.44500
H184        H  0.19267078  0.26972198  0.35972490     0.44500
N185        N  0.04814300  0.12769637  0.88252763    -0.02600
C186        C  0.04615544  0.15996680  0.86936392     0.00000
C187        C  0.03471639  0.17517203  0.90423898    -0.22900
C188        C  0.03254535  0.15348184  0.94048911    -0.23100
C189        C  0.04189275  0.12505990  0.92676437    -0.00100
H190        H  0.03508204  0.20287453  0.90486697     0.13700
H191        H  0.02955928  0.16067072  0.97409928     0.13700
N192        N  0.11803156  0.49029049  0.88845528    -0.02600
C193        C  0.15071212  0.48353674  0.87861671     0.00000
C194        C  0.17897274  0.49429412  0.91404639    -0.22900
C195        C  0.16202419  0.50617931  0.94703963    -0.23100
C196        C  0.12434026  0.50308818  0.93057988    -0.00100
H197        H  0.20544998  0.48855378  0.91782066     0.13700
H198        H  0.17314818  0.51177801  0.98088577     0.13700
C199        C  0.17763733  0.36821835  0.79473348     0.04000
C200        C  0.14838353  0.32796787  0.78946471    -0.12200
C201        C  0.16292624  0.30117536  0.78237276     0.01500
C202        C  0.20733734  0.31609871  0.77458482    -0.10700
C203        C  0.23802124  0.35603056  0.78260910     0.04000
C204        C  0.22211255  0.38164897  0.79218977    -0.10100
H205        H  0.11436278  0.31725124  0.79424526     0.09600
H206        H  0.21771109  0.29575148  0.76494384     0.07100
H207        H  0.24420651  0.41188455  0.80107900     0.06900
N208        N  0.43233394  0.44004747  0.88310637    -0.02600
C209        C  0.38954464  0.41816139  0.87350323     0.00000
C210        C  0.36539863  0.41151123  0.91119003    -0.22900
C211        C  0.39399671  0.42984874  0.94509273    -0.23100
C212        C  0.43447797  0.44691706  0.92688727    -0.00100
H213        H  0.33054354  0.39535521  0.91351993     0.13700
H214        H  0.38620165  0.43024404  0.97932758     0.13700
O215        O  0.07164672  0.12189219  0.99484411    -0.80000
O216        O  0.07271413  0.48773394  0.61304987    -0.64700
O217        O  0.09436716  0.06542243  0.52365536    -1.11300
C218        C  0.47387577  0.46656656  0.95323721     1.06900
O219        O  0.04626486  0.43645726  0.56753945    -0.77900
O220        O  0.07773012  0.47197888  0.98948532    -0.65500
Ni221      Ni  0.10809288  0.11769201  0.53917613     1.34900
C222        C  0.08914000  0.49762922  0.95943605     0.85600
O223        O  0.13684420  0.06148211  0.60125265    -0.78500
O224        O  0.14764893  0.12127336  0.58468180    -0.88700
C225        C  0.06161246  0.45204901  0.60478222     0.85200
O226        O  0.06138616  0.10134126  0.57850128    -0.66900
O227        O  0.49411007  0.44841640  0.96189368    -0.86200
C228        C  0.04257653  0.07219656  0.60405296     0.86000
C229        C  0.15757056  0.09869214  0.60547237     1.07600
H230        H  0.00645404  0.49065243  0.55538079     0.39400
O231        O  0.03120919  0.49561261  0.53810572    -1.08900
O232        O  0.07004551  0.01715865  0.95275540    -0.65500
Ni233      Ni  0.04054028  0.03339317  0.99384310     1.26300
O234        O  0.05216941  0.04497064  0.60674169    -0.65800
O235        O  0.48590136  0.50055179  0.96772193    -0.78100
C236        C  0.05526849  0.10471579  0.95855848     0.85400
O237        O  0.04938092  0.07111647  0.95016022    -0.65200
Ni238      Ni  0.02234861  0.44661508  0.51590167     1.27400
Ni239      Ni  0.08390343  0.02799382  0.56994809     1.26100
H240        H  0.11794078  0.06787370  0.00615575     0.39900
O241        O  0.06530031  0.44537259  0.75007496    -0.80000
O242        O  0.05406147  0.07132363  0.86458150    -0.64700
O243        O  0.03213180  0.49351929  0.77619590    -1.11300
C244        C  0.14905130  0.10140399  0.70559771     1.06900
O245        O  0.05278567  0.10865475  0.81149512    -0.77900
O246        O  0.04965666  0.09339457  0.72695177    -0.65500
Ni247      Ni  0.02178633  0.44235637  0.79006022     1.34900
C248        C  0.03278207  0.06282379  0.70322702     0.85600
O249        O  0.49312952  0.49442271  0.85533819    -0.78500
O250        O  0.47607620  0.43451407  0.83002980    -0.88700
C251        C  0.05328139  0.10198573  0.85220082     0.85200
O252        O  0.06362133  0.45677962  0.83637243    -0.66900
O253        O  0.13769713  0.12241271  0.72721615    -0.86200
C254        C  0.08503072  0.48780162  0.85901547     0.86000
C255        C  0.46871381  0.45714052  0.85408515     1.07600
H256        H  0.11695130  0.07116147  0.80181540     0.39400
O257        O  0.09047345  0.06489145  0.78647724    -1.08900
O258        O  0.04379218  0.03695879  0.70464020    -0.65500
Ni259      Ni  0.08124679  0.02769064  0.74151538     1.26300
O260        O  0.07945089  0.01740899  0.85620608    -0.65800
O261        O  0.13030179  0.06404888  0.70786669    -0.78100
C262        C  0.07311738  0.45821274  0.71069703     0.85400
O263        O  0.07168497  0.48845089  0.69956165    -0.65200
Ni264      Ni  0.09471008  0.11340299  0.76985297     1.27400
Ni265      Ni  0.04244391  0.03045850  0.82194972     1.26100
H266        H  0.00628438  0.48923461  0.76100152     0.39900
N267        N  0.19283215  0.11671316  0.63639907    -0.02600
C268        C  0.23337964  0.14540409  0.62616566     0.00000
C269        C  0.25420202  0.16825774  0.66257976    -0.22900
C270        C  0.22537744  0.15404959  0.69632682    -0.23100
C271        C  0.18825957  0.12261946  0.67948139    -0.00100
H272        H  0.28752464  0.19159217  0.66474916     0.13700
H273        H  0.23092953  0.16517403  0.72968615     0.10900
N274        N  0.00731531  0.06877877  0.62961395    -0.02600
C275        C  0.97556698  0.07552147  0.61553808     0.00000
C276        C  0.94608335  0.06676642  0.64893652    -0.22900
C277        C  0.96135648  0.05595721  0.68493229    -0.23100
C278        C  0.99917894  0.05773317  0.67206137    -0.00100
H279        H  0.91997469  0.07319830  0.64919578     0.13700
H280        H  0.94899323  0.05182158  0.71805522     0.13700
C281        C  0.45009548  0.18766748  0.52710499     0.04000
C282        C  0.47463715  0.22886806  0.53012866    -0.12200
C283        C  0.45472103  0.25161684  0.53650437     0.01500
C284        C  0.40926418  0.23261612  0.53540744    -0.10700
C285        C  0.38400474  0.19147133  0.53119986     0.04000
C286        C  0.40494331  0.16993018  0.52380364    -0.10100
H287        H  0.00943962  0.24288878  0.53170998     0.09600
H288        H  0.39352792  0.24956378  0.54113326     0.07100
H289        H  0.38557737  0.13841185  0.52041724     0.06900
N290        N  0.07005128  0.42874472  0.63617849    -0.02600
C291        C  0.07125049  0.39573906  0.62512765     0.00000
C292        C  0.08995050  0.38547950  0.65868235    -0.22900
C293        C  0.09839416  0.41151090  0.69236260    -0.23100
C294        C  0.08473074  0.43712724  0.67847311    -0.00100
H295        H  0.09140331  0.35867528  0.66096840     0.13700
H296        H  0.10834911  0.40890443  0.72535130     0.13700
C297        C  0.48148169  0.29314030  0.55268642    -0.04600
C298        C  0.02361625  0.31725869  0.53654768    -0.32000
C299        C  0.05294210  0.35229688  0.55812566     0.37200
C300        C  0.03978963  0.36488564  0.59503187    -0.05000
C301        C  0.49692205  0.34292278  0.60884063    -0.31900
C302        C  0.46818095  0.30704848  0.58890959     0.37100
H303        H  0.03470803  0.30784141  0.50858088     0.17500
O304        O  0.09470522  0.37332733  0.54380320    -0.59400
H305        H  0.48670497  0.35195989  0.63784480     0.17500
O306        O  0.42858237  0.28452192  0.60787585    -0.59500
H307        H  0.43255388  0.26736272  0.62914112     0.44500
H308        H  0.11024989  0.36176580  0.55929554     0.44500
C309        C  0.46911734  0.16235206  0.53889550    -0.04600
C310        C  0.45002654  0.12363508  0.52227164    -0.32000
C311        C  0.45521371  0.09481407  0.54430565     0.37200
C312        C  0.48144297  0.10495207  0.58205945    -0.05000
C313        C  0.00574958  0.14437753  0.59450593    -0.31900
C314        C  0.99915729  0.17285537  0.57421557     0.37100
H315        H  0.42803453  0.11481750  0.49441688     0.17500
O316        O  0.43154763  0.05637039  0.53114872    -0.59400
H317        H  0.02600358  0.15236566  0.62375479     0.17500
O318        O  0.01851102  0.20950739  0.59295680    -0.59500
H319        H  0.99869287  0.20788495  0.61652997     0.44500
H320        H  0.44994937  0.05288796  0.50951294     0.44500
C321        C  0.25855421  0.14554349  0.58814867    -0.04600
C322        C  0.28084173  0.12502256  0.59335479    -0.32000
C323        C  0.32057228  0.13805000  0.57310305     0.37200
C324        C  0.33744804  0.17083225  0.54425400    -0.05000
C325        C  0.31163210  0.18770092  0.53444545    -0.31900
C326        C  0.27294372  0.17583581  0.55691631     0.37100
H327        H  0.27061746  0.10233323  0.61823883     0.17500
O328        O  0.34454299  0.12132028  0.58624953    -0.59400
H329        H  0.32319284  0.21235991  0.51209224     0.17500
O330        O  0.25213294  0.19693022  0.55186193    -0.59500
H331        H  0.22862391  0.18180885  0.53028068     0.44500
H332        H  0.36245232  0.13756879  0.61132501     0.44500
C333        C  0.28582436  0.37046559  0.78883519    -0.04600
C334        C  0.31609929  0.41102448  0.78475189    -0.32000
C335        C  0.35647753  0.42791034  0.80616837     0.37200
C336        C  0.36809275  0.40408471  0.83036613    -0.05000
C337        C  0.34266595  0.36337280  0.82591007    -0.31900
C338        C  0.30132533  0.34633536  0.80683266     0.37100
H339        H  0.30706787  0.43048668  0.76863552     0.17500
O340        O  0.38116501  0.46801466  0.80894344    -0.59400
H341        H  0.35159682  0.34460900  0.84394491     0.17500
O342        O  0.27544455  0.30647379  0.81029936    -0.59500
H343        H  0.27128459  0.30095162  0.84229213     0.44500
H344        H  0.40390109  0.47546887  0.78651300     0.44500
C345        C  0.16274718  0.39568155  0.80959668    -0.04600
C346        C  0.18181091  0.43399925  0.79225868    -0.32000
C347        C  0.17462007  0.46264414  0.81149820     0.37200
C348        C  0.14724865  0.45298197  0.84791524    -0.05000
C349        C  0.12531747  0.41404669  0.86278564    -0.31900
C350        C  0.13341562  0.38571735  0.84468628     0.37100
H351        H  0.20422645  0.44231934  0.76523120     0.17500
O352        O  0.19710427  0.50061628  0.79673039    -0.59400
H353        H  0.10511173  0.40651892  0.89162962     0.17500
O354        O  0.11553370  0.34956516  0.86443200    -0.59500
H355        H  0.13707870  0.35187874  0.88678535     0.44500
H356        H  0.17680818  0.50351392  0.77672078     0.44500
C357        C  0.07400361  0.18721895  0.83462380    -0.04600
C358        C  0.11844094  0.20224108  0.83913096    -0.32000
C359        C  0.14783503  0.23795634  0.81994606     0.37200
C360        C  0.13331040  0.25851407  0.79287166    -0.05000
C361        C  0.08855798  0.24050779  0.78394193    -0.31900
C362        C  0.05898774  0.20561783  0.80534961     0.37100
H363        H  0.13049772  0.18884775  0.86224658     0.17500
O364        O  0.19013792  0.25454452  0.83274460    -0.59400
H365        H  0.07616694  0.25499470  0.76294330     0.17500
O366        O  0.01556131  0.19150279  0.80013344    -0.59500
H367        H  0.00565369  0.16952057  0.77886939     0.44500
H368        H  0.19267090  0.26972176  0.85972461     0.44500
N369        N  0.04814300  0.62769640  0.38252776    -0.02600
C370        C  0.04615534  0.65996678  0.36936400     0.00000
C371        C  0.03471626  0.67517202  0.40423903    -0.22900
C372        C  0.03254539  0.65348194  0.44048920    -0.23100
C373        C  0.04189283  0.62506000  0.42676450    -0.00100
H374        H  0.03508194  0.70287454  0.40486699     0.13700
H375        H  0.02955945  0.66067093  0.47409936     0.13700
N376        N  0.11803154  0.99029045  0.38845530    -0.02600
C377        C  0.15071213  0.98353675  0.37861677     0.00000
C378        C  0.17897267  0.99429404  0.41404656    -0.22900
C379        C  0.16202412  0.00617925  0.44703979    -0.23100
C380        C  0.12434019  0.00308812  0.43057994    -0.00100
H381        H  0.20544991  0.98855366  0.41782083     0.13700
H382        H  0.17314808  0.01177806  0.48088597     0.13700
C383        C  0.17763732  0.86821841  0.29473338     0.04000
C384        C  0.14838350  0.82796792  0.28946460    -0.12200
C385        C  0.16292622  0.80117538  0.28237268     0.01500
C386        C  0.20733734  0.81609873  0.27458475    -0.10700
C387        C  0.23802122  0.85603059  0.28260899     0.04000
C388        C  0.22211254  0.88164902  0.29218963    -0.10100
H389        H  0.11436275  0.81725132  0.29424514     0.09600
H390        H  0.21771115  0.79575151  0.26494390     0.07100
H391        H  0.24420653  0.91188461  0.30107887     0.06900
N392        N  0.43233390  0.94004742  0.38310636    -0.02600
C393        C  0.38954462  0.91816141  0.37350317     0.00000
C394        C  0.36539859  0.91151127  0.41118994    -0.22900
C395        C  0.39399666  0.92984870  0.44509269    -0.23100
C396        C  0.43447792  0.94691699  0.42688726    -0.00100
H397        H  0.33054350  0.89535528  0.41351981     0.13700
H398        H  0.38620158  0.93024393  0.47932755     0.13700
O399        O  0.07164677  0.62189232  0.49484420    -0.80000
O400        O  0.07271425  0.98773397  0.11304985    -0.64700
O401        O  0.09436716  0.56542241  0.02365543    -1.11300
C402        C  0.47387573  0.96656651  0.45323723     1.06900
O403        O  0.04626493  0.93645728  0.06753941    -0.77900
O404        O  0.07773021  0.97197901  0.48948548    -0.65500
Ni405      Ni  0.10809281  0.61769199  0.03917611     1.34900
C406        C  0.08913992  0.99762919  0.45943606     0.85600
O407        O  0.13684408  0.56148211  0.10125276    -0.78500
O408        O  0.14764900  0.62127341  0.08468170    -0.88700
C409        C  0.06161257  0.95204905  0.10478219     0.85200
O410        O  0.06138621  0.60134128  0.07850137    -0.66900
O411        O  0.49411007  0.94841638  0.46189372    -0.86200
C412        C  0.04257656  0.57219657  0.10405302     0.86000
C413        C  0.15757055  0.59869216  0.10547237     1.07600
H414        H  0.00645461  0.99065238  0.05538039     0.39400
O415        O  0.03120926  0.99561256  0.03810567    -1.08900
O416        O  0.07004548  0.51715856  0.45275548    -0.65500
Ni417      Ni  0.04054032  0.53339320  0.49384313     1.26300
O418        O  0.05216942  0.54497062  0.10674175    -0.65800
O419        O  0.48590127  0.00055172  0.46772200    -0.78100
C420        C  0.05526859  0.60471591  0.45855858     0.85400
O421        O  0.04938113  0.57111661  0.45016030    -0.65200
Ni422      Ni  0.02234865  0.94661506  0.01590158     1.27400
Ni423      Ni  0.08390335  0.52799379  0.06994814     1.26100
H424        H  0.11794099  0.56787369  0.50615545     0.39900
O425        O  0.06530027  0.94537267  0.25007499    -0.80000
O426        O  0.05406160  0.57132370  0.36458164    -0.64700
O427        O  0.03213175  0.99351931  0.27619591    -1.11300
C428        C  0.14905135  0.60140395  0.20559773     1.06900
O429        O  0.05278578  0.60865482  0.31149526    -0.77900
O430        O  0.04965677  0.59339462  0.22695173    -0.65500
Ni431      Ni  0.02178630  0.94235643  0.29006025     1.34900
C432        C  0.03278214  0.56282382  0.20322701     0.85600
O433        O  0.49312951  0.99442272  0.35533834    -0.78500
O434        O  0.47607617  0.93451416  0.33002977    -0.88700
C435        C  0.05328148  0.60198579  0.35220097     0.85200
O436        O  0.06362128  0.95677958  0.33637245    -0.66900
O437        O  0.13769725  0.62241268  0.22721626    -0.86200
C438        C  0.08503074  0.98780161  0.35901544     0.86000
C439        C  0.46871378  0.95714054  0.35408518     1.07600
H440        H  0.11695105  0.57116154  0.30181512     0.39400
O441        O  0.09047350  0.56489150  0.28647722    -1.08900
O442        O  0.04379230  0.53695885  0.20464011    -0.65500
Ni443      Ni  0.08124681  0.52769065  0.24151534     1.26300
O444        O  0.07945101  0.51740910  0.35620607    -0.65800
O445        O  0.13030177  0.56404884  0.20786661    -0.78100
C446        C  0.07311730  0.95821274  0.21069702     0.85400
O447        O  0.07168489  0.98845088  0.19956158    -0.65200
Ni448      Ni  0.09471014  0.61340302  0.26985299     1.27400
Ni449      Ni  0.04244395  0.53045854  0.32194976     1.26100
H450        H  0.00628494  0.98923470  0.26100185     0.39900
N451        N  0.19283215  0.61671316  0.13639908    -0.02600
C452        C  0.23337964  0.64540411  0.12616571     0.00000
C453        C  0.25420200  0.66825775  0.16257985    -0.22900
C454        C  0.22537740  0.65404960  0.19632689    -0.23100
C455        C  0.18825960  0.62261939  0.17948145    -0.00100
H456        H  0.28752462  0.69159220  0.16474925     0.13700
H457        H  0.23092941  0.66517410  0.22968621     0.10900
N458        N  0.00731531  0.56877871  0.12961396    -0.02600
C459        C  0.97556694  0.57552133  0.11553798     0.00000
C460        C  0.94608332  0.56676632  0.14893640    -0.22900
C461        C  0.96135650  0.55595729  0.18493228    -0.23100
C462        C  0.99917896  0.55773322  0.17206139    -0.00100
H463        H  0.91997466  0.57319819  0.14919553     0.13700
H464        H  0.94899321  0.55182177  0.21805519     0.13700
C465        C  0.45009552  0.68766752  0.02710497     0.04000
C466        C  0.47463718  0.72886812  0.03012875    -0.12200
C467        C  0.45472107  0.75161691  0.03650432     0.01500
C468        C  0.40926423  0.73261619  0.03540731    -0.10700
C469        C  0.38400477  0.69147136  0.03119980     0.04000
C470        C  0.40494335  0.66993022  0.02380356    -0.10100
H471        H  0.00943963  0.74288883  0.03171028     0.09600
H472        H  0.39352796  0.74956383  0.04113309     0.07100
H473        H  0.38557741  0.63841187  0.02041721     0.06900
N474        N  0.07005144  0.92874478  0.13617843    -0.02600
C475        C  0.07125060  0.89573911  0.12512758     0.00000
C476        C  0.08995052  0.88547947  0.15868231    -0.22900
C477        C  0.09839398  0.91151077  0.19236263    -0.23100
C478        C  0.08473068  0.93712719  0.17847312    -0.00100
H479        H  0.09140337  0.85867527  0.16096836     0.13700
H480        H  0.10834880  0.90890423  0.22535134     0.13700
C481        C  0.48148173  0.79314035  0.05268640    -0.04600
C482        C  0.02361630  0.81725862  0.03654776    -0.32000
C483        C  0.05294209  0.85229685  0.05812562     0.37200
C484        C  0.03978968  0.86488573  0.09503177    -0.05000
C485        C  0.49692207  0.84292290  0.10884050    -0.31900
C486        C  0.46818097  0.80704863  0.08890944     0.37100
H487        H  0.03470813  0.80784121  0.00858112     0.17500
O488        O  0.09470516  0.87332725  0.04380310    -0.59400
H489        H  0.48670500  0.85196002  0.13784466     0.17500
O490        O  0.42858236  0.78452204  0.10787577    -0.59500
H491        H  0.43255376  0.76736314  0.12914063     0.44500
H492        H  0.11024980  0.86176569  0.05929543     0.44500
C493        C  0.46911732  0.66235206  0.03889553    -0.04600
C494        C  0.45002644  0.62363506  0.02227167    -0.32000
C495        C  0.45521362  0.59481399  0.04430561     0.37200
C496        C  0.48144285  0.60495196  0.08205945    -0.05000
C497        C  0.00574942  0.64437739  0.09450606    -0.31900
C498        C  0.99915716  0.67285527  0.07421574     0.37100
H499        H  0.42803446  0.61481752  0.99441687     0.17500
O500        O  0.43154770  0.55637035  0.03114859    -0.59400
H501        H  0.02600331  0.65236542  0.12375501     0.17500
O502        O  0.01851086  0.70950727  0.09295704    -0.59500
H503        H  0.99869269  0.70788480  0.11653019     0.44500
H504        H  0.44994965  0.55288807  0.00951248     0.44500
C505        C  0.25855420  0.64554354  0.08814869    -0.04600
C506        C  0.28084171  0.62502260  0.09335479    -0.32000
C507        C  0.32057233  0.63805004  0.07310312     0.37200
C508        C  0.33744805  0.67083227  0.04425403    -0.05000
C509        C  0.31163207  0.68770092  0.03444550    -0.31900
C510        C  0.27294368  0.67583585  0.05691635     0.37100
H511        H  0.27061738  0.60233325  0.11823881     0.17500
O512        O  0.34454295  0.62132026  0.08624958    -0.59400
H513        H  0.32319277  0.71235987  0.01209231     0.17500
O514        O  0.25213293  0.69693030  0.05186191    -0.59500
H515        H  0.22862388  0.68180893  0.03028037     0.44500
H516        H  0.36245253  0.63756893  0.11132537     0.44500
C517        C  0.28582433  0.87046560  0.28883511    -0.04600
C518        C  0.31609926  0.91102451  0.28475179    -0.32000
C519        C  0.35647750  0.92791038  0.30616828     0.37200
C520        C  0.36809273  0.90408476  0.33036605    -0.05000
C521        C  0.34266596  0.86337286  0.32591000    -0.31900
C522        C  0.30132532  0.84633537  0.30683265     0.37100
H523        H  0.30706781  0.93048666  0.26863535     0.17500
O524        O  0.38116512  0.96801470  0.30894328    -0.59400
H525        H  0.35159689  0.84460911  0.34394486     0.17500
O526        O  0.27544461  0.80647382  0.31029943    -0.59500
H527        H  0.27128454  0.80095172  0.34229264     0.44500
H528        H  0.40390121  0.97546878  0.28651285     0.44500
C529        C  0.16274722  0.89568162  0.30959672    -0.04600
C530        C  0.18181103  0.93399935  0.29225882    -0.32000
C531        C  0.17462011  0.96264420  0.31149823     0.37200
C532        C  0.14724867  0.95298201  0.34791526    -0.05000
C533        C  0.12531746  0.91404672  0.36278566    -0.31900
C534        C  0.13341567  0.88571739  0.34468633     0.37100
H535        H  0.20422668  0.94231954  0.26523144     0.17500
O536        O  0.19710434  0.00061632  0.29673034    -0.59400
H537        H  0.10511160  0.90651890  0.39162956     0.17500
O538        O  0.11553358  0.84956510  0.36443190    -0.59500
H539        H  0.13707816  0.85187847  0.38678527     0.44500
H540        H  0.17680833  0.00351396  0.27672064     0.44500
C541        C  0.07400355  0.68721897  0.33462387    -0.04600
C542        C  0.11844089  0.70224106  0.33913094    -0.32000
C543        C  0.14783501  0.73795636  0.31994606     0.37200
C544        C  0.13331036  0.75851405  0.29287156    -0.05000
C545        C  0.08855793  0.74050771  0.28394175    -0.31900
C546        C  0.05898766  0.70561777  0.30534954     0.37100
H547        H  0.13049769  0.68884771  0.36224650     0.17500
O548        O  0.19013786  0.75454462  0.33274476    -0.59400
H549        H  0.07616689  0.75499459  0.26294306     0.17500
O550        O  0.01556123  0.69150270  0.30013335    -0.59500
H551        H  0.00565349  0.66952017  0.27886941     0.44500
H552        H  0.19267070  0.76972207  0.35972492     0.44500
N553        N  0.04814296  0.62769637  0.88252764    -0.02600
C554        C  0.04615531  0.65996675  0.86936390     0.00000
C555        C  0.03471624  0.67517200  0.90423895    -0.22900
C556        C  0.03254536  0.65348190  0.94048909    -0.23100
C557        C  0.04189282  0.62505998  0.92676438    -0.00100
H558        H  0.03508194  0.70287452  0.90486695     0.13700
H559        H  0.02955939  0.66067084  0.97409927     0.13700
N560        N  0.11803153  0.99029043  0.88845525    -0.02600
C561        C  0.15071212  0.98353673  0.87861670     0.00000
C562        C  0.17897268  0.99429401  0.91404644    -0.22900
C563        C  0.16202411  0.00617921  0.94703966    -0.23100
C564        C  0.12434022  0.00308815  0.93057984    -0.00100
H565        H  0.20544993  0.98855366  0.91782071     0.13700
H566        H  0.17314807  0.01177800  0.98088581     0.13700
C567        C  0.17763733  0.86821838  0.79473346     0.04000
C568        C  0.14838350  0.82796790  0.78946466    -0.12200
C569        C  0.16292618  0.80117535  0.78237264     0.01500
C570        C  0.20733732  0.81609871  0.77458478    -0.10700
C571        C  0.23802120  0.85603056  0.78260908     0.04000
C572        C  0.22211253  0.88164898  0.79218970    -0.10100
H573        H  0.11436275  0.81725131  0.79424527     0.09600
H574        H  0.21771112  0.79575148  0.76494392     0.07100
H575        H  0.24420651  0.91188458  0.80107888     0.06900
N576        N  0.43233394  0.94004745  0.88310637    -0.02600
C577        C  0.38954464  0.91816148  0.87350324     0.00000
C578        C  0.36539864  0.91151136  0.91119004    -0.22900
C579        C  0.39399675  0.92984887  0.94509273    -0.23100
C580        C  0.43447799  0.94691709  0.92688726    -0.00100
H581        H  0.33054356  0.89535531  0.91351999     0.13700
H582        H  0.38620171  0.93024420  0.97932757     0.13700
O583        O  0.07164666  0.62189224  0.99484416    -0.80000
O584        O  0.07271431  0.98773405  0.61304987    -0.64700
O585        O  0.09436715  0.56542240  0.52365540    -1.11300
C586        C  0.47387578  0.96656661  0.95323719     1.06900
O587        O  0.04626490  0.93645734  0.56753949    -0.77900
O588        O  0.07773014  0.97197897  0.98948529    -0.65500
Ni589      Ni  0.10809282  0.61769198  0.53917614     1.34900
C590        C  0.08913998  0.99762927  0.95943598     0.85600
O591        O  0.13684412  0.56148207  0.60125260    -0.78500
O592        O  0.14764890  0.62127337  0.58468179    -0.88700
C593        C  0.06161256  0.95204910  0.60478223     0.85200
O594        O  0.06138613  0.60134119  0.57850129    -0.66900
O595        O  0.49411010  0.94841647  0.96189368    -0.86200
C596        C  0.04257656  0.57219652  0.60405301     0.86000
C597        C  0.15757049  0.59869211  0.60547236     1.07600
H598        H  0.00645450  0.99065237  0.55538058     0.39400
O599        O  0.03120924  0.99561259  0.53810573    -1.08900
O600        O  0.07004552  0.51715858  0.95275546    -0.65500
Ni601      Ni  0.04054033  0.53339320  0.99384308     1.26300
O602        O  0.05216950  0.54497064  0.60674178    -0.65800
O603        O  0.48590132  0.00055182  0.96772194    -0.78100
C604        C  0.05526856  0.60471588  0.95855850     0.85400
O605        O  0.04938113  0.57111659  0.95016020    -0.65200
Ni606      Ni  0.02234866  0.94661510  0.51590166     1.27400
Ni607      Ni  0.08390333  0.52799375  0.56994810     1.26100
H608        H  0.11794071  0.56787366  0.00615584     0.39900
O609        O  0.06530026  0.94537264  0.75007497    -0.80000
O610        O  0.05406163  0.57132374  0.86458148    -0.64700
O611        O  0.03213173  0.99351928  0.77619590    -1.11300
C612        C  0.14905133  0.60140397  0.70559778     1.06900
O613        O  0.05278573  0.60865485  0.81149512    -0.77900
O614        O  0.04965679  0.59339463  0.72695174    -0.65500
Ni615      Ni  0.02178628  0.94235639  0.79006023     1.34900
C616        C  0.03278215  0.56282382  0.70322703     0.85600
O617        O  0.49312954  0.99442268  0.85533825    -0.78500
O618        O  0.47607614  0.93451408  0.83002974    -0.88700
C619        C  0.05328145  0.60198581  0.85220082     0.85200
O620        O  0.06362123  0.95677953  0.83637245    -0.66900
O621        O  0.13769732  0.62241276  0.72721633    -0.86200
C622        C  0.08503069  0.98780157  0.85901544     0.86000
C623        C  0.46871381  0.95714050  0.85408515     1.07600
H624        H  0.11695133  0.57116160  0.80181541     0.39400
O625        O  0.09047350  0.56489152  0.78647723    -1.08900
O626        O  0.04379229  0.53695884  0.70464017    -0.65500
Ni627      Ni  0.08124682  0.52769066  0.74151538     1.26300
O628        O  0.07945091  0.51740904  0.85620610    -0.65800
O629        O  0.13030176  0.56404887  0.70786670    -0.78100
C630        C  0.07311728  0.95821272  0.71069702     0.85400
O631        O  0.07168486  0.98845086  0.69956160    -0.65200
Ni632      Ni  0.09471017  0.61340308  0.76985300     1.27400
Ni633      Ni  0.04244396  0.53045855  0.82194969     1.26100
H634        H  0.00628493  0.98923468  0.76100185     0.39900
N635        N  0.19283208  0.61671306  0.63639907    -0.02600
C636        C  0.23337956  0.64540405  0.62616567     0.00000
C637        C  0.25420192  0.66825768  0.66257978    -0.22900
C638        C  0.22537737  0.65404947  0.69632684    -0.23100
C639        C  0.18825954  0.62261933  0.67948142    -0.00100
H640        H  0.28752452  0.69159216  0.66474916     0.13700
H641        H  0.23092940  0.66517392  0.72968616     0.10900
N642        N  0.00731528  0.56877866  0.62961395    -0.02600
C643        C  0.97556698  0.57552138  0.61553803     0.00000
C644        C  0.94608341  0.56676645  0.64893649    -0.22900
C645        C  0.96135654  0.55595733  0.68493233    -0.23100
C646        C  0.99917896  0.55773320  0.67206141    -0.00100
H647        H  0.91997478  0.57319835  0.64919568     0.13700
H648        H  0.94899322  0.55182174  0.71805523     0.13700
C649        C  0.45009547  0.68766748  0.52710496     0.04000
C650        C  0.47463714  0.72886808  0.53012863    -0.12200
C651        C  0.45472106  0.75161687  0.53650437     0.01500
C652        C  0.40926424  0.73261616  0.53540742    -0.10700
C653        C  0.38400477  0.69147135  0.53119989     0.04000
C654        C  0.40494334  0.66993019  0.52380366    -0.10100
H655        H  0.00943960  0.74288882  0.53170995     0.09600
H656        H  0.39352798  0.74956380  0.54113323     0.07100
H657        H  0.38557741  0.63841186  0.52041727     0.06900
N658        N  0.07005142  0.92874480  0.63617845    -0.02600
C659        C  0.07125058  0.89573914  0.62512759     0.00000
C660        C  0.08995052  0.88547952  0.65868232    -0.22900
C661        C  0.09839401  0.91151080  0.69236266    -0.23100
C662        C  0.08473069  0.93712721  0.67847314    -0.00100
H663        H  0.09140333  0.85867531  0.66096834     0.13700
H664        H  0.10834883  0.90890423  0.72535138     0.13700
C665        C  0.48148172  0.79314033  0.55268647    -0.04600
C666        C  0.02361627  0.81725867  0.53654777    -0.32000
C667        C  0.05294209  0.85229689  0.55812569     0.37200
C668        C  0.03978966  0.86488571  0.59503183    -0.05000
C669        C  0.49692206  0.84292287  0.60884058    -0.31900
C670        C  0.46818095  0.80704857  0.58890955     0.37100
H671        H  0.03470803  0.80784130  0.50858105     0.17500
O672        O  0.09470518  0.87332739  0.54380317    -0.59400
H673        H  0.48670499  0.85195999  0.63784474     0.17500
O674        O  0.42858236  0.78452203  0.60787583    -0.59500
H675        H  0.43255379  0.76736290  0.62914099     0.44500
H676        H  0.11024984  0.86176589  0.55929528     0.44500
C677        C  0.46911732  0.66235204  0.53889550    -0.04600
C678        C  0.45002650  0.62363502  0.52227165    -0.32000
C679        C  0.45521370  0.59481398  0.54430560     0.37200
C680        C  0.48144290  0.60495198  0.58205946    -0.05000
C681        C  0.00574948  0.64437745  0.59450599    -0.31900
C682        C  0.99915719  0.67285531  0.57421564     0.37100
H683        H  0.42803451  0.61481746  0.49441687     0.17500
O684        O  0.43154768  0.55637030  0.53114869    -0.59400
H685        H  0.02600342  0.65236552  0.62375489     0.17500
O686        O  0.01851094  0.70950738  0.59295680    -0.59500
H687        H  0.99869287  0.70788500  0.61653000     0.44500
H688        H  0.44994953  0.55288790  0.50951255     0.44500
C689        C  0.25855416  0.64554350  0.58814871    -0.04600
C690        C  0.28084170  0.62502257  0.59335481    -0.32000
C691        C  0.32057225  0.63804997  0.57310304     0.37200
C692        C  0.33744803  0.67083226  0.54425405    -0.05000
C693        C  0.31163206  0.68770093  0.53444555    -0.31900
C694        C  0.27294367  0.67583583  0.55691640     0.37100
H695        H  0.27061742  0.60233325  0.61823886     0.17500
O696        O  0.34454291  0.62132018  0.58624945    -0.59400
H697        H  0.32319276  0.71235989  0.51209236     0.17500
O698        O  0.25213290  0.69693027  0.55186200    -0.59500
H699        H  0.22862385  0.68180890  0.53028047     0.44500
H700        H  0.36245225  0.63756863  0.61132512     0.44500
C701        C  0.28582432  0.87046562  0.78883520    -0.04600
C702        C  0.31609924  0.91102452  0.78475188    -0.32000
C703        C  0.35647748  0.92791037  0.80616838     0.37200
C704        C  0.36809271  0.90408478  0.83036616    -0.05000
C705        C  0.34266593  0.86337288  0.82591011    -0.31900
C706        C  0.30132534  0.84633543  0.80683268     0.37100
H707        H  0.30706780  0.93048667  0.76863543     0.17500
O708        O  0.38116512  0.96801470  0.80894335    -0.59400
H709        H  0.35159683  0.84460910  0.84394494     0.17500
O710        O  0.27544466  0.80647385  0.81029933    -0.59500
H711        H  0.27128451  0.80095170  0.84229208     0.44500
H712        H  0.40390091  0.97546874  0.78651297     0.44500
C713        C  0.16274726  0.89568162  0.80959675    -0.04600
C714        C  0.18181098  0.93399933  0.79225876    -0.32000
C715        C  0.17462004  0.96264418  0.81149820     0.37200
C716        C  0.14724864  0.95298199  0.84791519    -0.05000
C717        C  0.12531750  0.91404673  0.86278560    -0.31900
C718        C  0.13341569  0.88571741  0.84468630     0.37100
H719        H  0.20422651  0.94231947  0.76523129     0.17500
O720        O  0.19710411  0.00061629  0.79673032    -0.59400
H721        H  0.10511175  0.90651894  0.89162956     0.17500
O722        O  0.11553367  0.84956522  0.86443198    -0.59500
H723        H  0.13707865  0.85187871  0.88678534     0.44500
H724        H  0.17680795  0.00351383  0.77672075     0.44500
C725        C  0.07400354  0.68721893  0.83462382    -0.04600
C726        C  0.11844089  0.70224107  0.83913099    -0.32000
C727        C  0.14783498  0.73795635  0.81994608     0.37200
C728        C  0.13331034  0.75851404  0.79287159    -0.05000
C729        C  0.08855791  0.74050769  0.78394181    -0.31900
C730        C  0.05898768  0.70561773  0.80534954     0.37100
H731        H  0.13049765  0.68884774  0.86224659     0.17500
O732        O  0.19013789  0.75454459  0.83274465    -0.59400
H733        H  0.07616687  0.75499459  0.76294317     0.17500
O734        O  0.01556123  0.69150267  0.80013342    -0.59500
H735        H  0.00565356  0.66952042  0.77886945     0.44500
H736        H  0.19267083  0.76972186  0.85972463     0.44500
N737        N  0.54814300  0.12769641  0.38252775    -0.02600
C738        C  0.54615536  0.15996680  0.36936402     0.00000
C739        C  0.53471623  0.17517198  0.40423907    -0.22900
C740        C  0.53254536  0.15348188  0.44048923    -0.23100
C741        C  0.54189278  0.12505996  0.42676449    -0.00100
H742        H  0.53508184  0.20287445  0.40486705     0.13700
H743        H  0.52955940  0.16067084  0.47409940     0.13700
N744        N  0.61803163  0.49029055  0.38845531    -0.02600
C745        C  0.65071217  0.48353678  0.37861681     0.00000
C746        C  0.67897273  0.49429415  0.41404659    -0.22900
C747        C  0.66202415  0.50617937  0.44703980    -0.23100
C748        C  0.62434025  0.50308823  0.43057993    -0.00100
H749        H  0.70544996  0.48855381  0.41782091     0.13700
H750        H  0.67314806  0.51177810  0.48088599     0.13700
C751        C  0.67763725  0.36821834  0.29473338     0.04000
C752        C  0.64838348  0.32796784  0.28946462    -0.12200
C753        C  0.66292623  0.30117535  0.28237267     0.01500
C754        C  0.70733736  0.31609874  0.27458474    -0.10700
C755        C  0.73802122  0.35603060  0.28260901     0.04000
C756        C  0.72211249  0.38164899  0.29218965    -0.10100
H757        H  0.61436272  0.31725118  0.29424523     0.09600
H758        H  0.71771117  0.29575153  0.26494385     0.07100
H759        H  0.74420642  0.41188458  0.30107889     0.06900
N760        N  0.93233394  0.44004749  0.38310643    -0.02600
C761        C  0.88954466  0.41816141  0.37350322     0.00000
C762        C  0.86539858  0.41151122  0.41118994    -0.22900
C763        C  0.89399660  0.42984877  0.44509270    -0.23100
C764        C  0.93447793  0.44691707  0.42688733    -0.00100
H765        H  0.83054347  0.39535510  0.41351973     0.13700
H766        H  0.88620144  0.43024404  0.47932751     0.13700
O767        O  0.57164688  0.12189231  0.49484412    -0.80000
O768        O  0.57271415  0.48773395  0.11304986    -0.64700
O769        O  0.59436714  0.06542238  0.02365542    -1.11300
C770        C  0.97387575  0.46656656  0.45323730     1.06900
O771        O  0.54626495  0.43645730  0.06753939    -0.77900
O772        O  0.57773016  0.47197898  0.48948543    -0.65500
Ni773      Ni  0.60809284  0.11769194  0.03917610     1.34900
C774        C  0.58913994  0.49762923  0.45943605     0.85600
O775        O  0.63684416  0.06148209  0.10125278    -0.78500
O776        O  0.64764901  0.12127334  0.08468168    -0.88700
C777        C  0.56161252  0.45204904  0.10478219     0.85200
O778        O  0.56138626  0.10134131  0.07850138    -0.66900
O779        O  0.99411012  0.44841644  0.46189370    -0.86200
C780        C  0.54257658  0.07219658  0.10405301     0.86000
C781        C  0.65757058  0.09869214  0.10547237     1.07600
H782        H  0.50645455  0.49065252  0.05538035     0.39400
O783        O  0.53120921  0.49561261  0.03810568    -1.08900
O784        O  0.57004535  0.01715846  0.45275544    -0.65500
Ni785      Ni  0.54054025  0.03339315  0.49384315     1.26300
O786        O  0.55216937  0.04497060  0.10674170    -0.65800
O787        O  0.98590139  0.50055182  0.46772196    -0.78100
C788        C  0.55526855  0.10471584  0.45855856     0.85400
O789        O  0.54938095  0.07111648  0.45016030    -0.65200
Ni790      Ni  0.52234863  0.44661508  0.01590161     1.27400
Ni791      Ni  0.58390336  0.02799376  0.06994815     1.26100
H792        H  0.61794106  0.06787375  0.50615534     0.39900
O793        O  0.56530023  0.44537258  0.25007497    -0.80000
O794        O  0.55406153  0.07132368  0.36458165    -0.64700
O795        O  0.53213181  0.49351930  0.27619592    -1.11300
C796        C  0.64905134  0.10140402  0.20559771     1.06900
O797        O  0.55278574  0.10865480  0.31149525    -0.77900
O798        O  0.54965671  0.09339461  0.22695175    -0.65500
Ni799      Ni  0.52178632  0.44235640  0.29006030     1.34900
C800        C  0.53278208  0.06282381  0.20322703     0.85600
O801        O  0.99312960  0.49442272  0.35533837    -0.78500
O802        O  0.97607609  0.43451412  0.33002974    -0.88700
C803        C  0.55328146  0.10198579  0.35220097     0.85200
O804        O  0.56362133  0.45677961  0.33637253    -0.66900
O805        O  0.63769721  0.12241272  0.22721622    -0.86200
C806        C  0.58503080  0.48780166  0.35901548     0.86000
C807        C  0.96871382  0.45714055  0.35408522     1.07600
H808        H  0.61695105  0.07116145  0.30181511     0.39400
O809        O  0.59047348  0.06489148  0.28647722    -1.08900
O810        O  0.54379220  0.03695881  0.20464016    -0.65500
Ni811      Ni  0.58124681  0.02769067  0.24151533     1.26300
O812        O  0.57945097  0.01740905  0.35620606    -0.65800
O813        O  0.63030178  0.06404890  0.20786661    -0.78100
C814        C  0.57311737  0.45821275  0.21069704     0.85400
O815        O  0.57168499  0.48845091  0.19956161    -0.65200
Ni816      Ni  0.59471012  0.11340302  0.26985300     1.27400
Ni817      Ni  0.54244394  0.03045853  0.32194978     1.26100
H818        H  0.50628439  0.48923461  0.26100154     0.39900
N819        N  0.69283218  0.11671320  0.13639908    -0.02600
C820        C  0.73337967  0.14540414  0.12616566     0.00000
C821        C  0.75420204  0.16825786  0.16257975    -0.22900
C822        C  0.72537748  0.15404965  0.19632685    -0.23100
C823        C  0.68825961  0.12261949  0.17948141    -0.00100
H824        H  0.78752467  0.19159231  0.16474912     0.13700
H825        H  0.73092959  0.16517402  0.22968623     0.10900
N826        N  0.50731534  0.06877876  0.12961397    -0.02600
C827        C  0.47556699  0.07552139  0.11553800     0.00000
C828        C  0.44608336  0.06676641  0.14893642    -0.22900
C829        C  0.46135647  0.05595723  0.18493224    -0.23100
C830        C  0.49917894  0.05773319  0.17206137    -0.00100
H831        H  0.41997476  0.07319836  0.14919560     0.13700
H832        H  0.44899319  0.05182164  0.21805516     0.13700
C833        C  0.95009549  0.18766747  0.02710498     0.04000
C834        C  0.97463717  0.22886805  0.03012880    -0.12200
C835        C  0.95472105  0.25161684  0.03650446     0.01500
C836        C  0.90926421  0.23261614  0.03540738    -0.10700
C837        C  0.88400475  0.19147132  0.03119979     0.04000
C838        C  0.90494331  0.16993017  0.02380354    -0.10100
H839        H  0.50943964  0.24288878  0.03171023     0.09600
H840        H  0.89352794  0.24956381  0.04113310     0.07100
H841        H  0.88557734  0.13841182  0.02041719     0.06900
N842        N  0.57005134  0.42874476  0.13617848    -0.02600
C843        C  0.57125056  0.39573912  0.12512762     0.00000
C844        C  0.58995056  0.38547955  0.15868233    -0.22900
C845        C  0.59839414  0.41151089  0.19236263    -0.23100
C846        C  0.58473074  0.43712724  0.17847314    -0.00100
H847        H  0.59140339  0.35867534  0.16096835     0.13700
H848        H  0.60834908  0.40890438  0.22535133     0.13700
C849        C  0.98148168  0.29314030  0.05268645    -0.04600
C850        C  0.52361631  0.31725867  0.03654770    -0.32000
C851        C  0.55294215  0.35229691  0.05812561     0.37200
C852        C  0.53978969  0.36488570  0.09503181    -0.05000
C853        C  0.99692200  0.34292285  0.10884051    -0.31900
C854        C  0.96818091  0.30704853  0.08890950     0.37100
H855        H  0.53470811  0.30784132  0.00858098     0.17500
O856        O  0.59470525  0.37332736  0.04380311    -0.59400
H857        H  0.98670489  0.35195999  0.13784461     0.17500
O858        O  0.92858224  0.28452198  0.10787573    -0.59500
H859        H  0.93255360  0.26736305  0.12914091     0.44500
H860        H  0.61025006  0.36176597  0.05929568     0.44500
C861        C  0.96911728  0.16235201  0.03889557    -0.04600
C862        C  0.95002645  0.12363502  0.02227166    -0.32000
C863        C  0.95521364  0.09481397  0.04430560     0.37200
C864        C  0.98144287  0.10495197  0.08205946    -0.05000
C865        C  0.50574953  0.14437743  0.09450600    -0.31900
C866        C  0.49915722  0.17285529  0.07421572     0.37100
H867        H  0.92803446  0.11481746  0.99441686     0.17500
O868        O  0.93154759  0.05637028  0.03114865    -0.59400
H869        H  0.52600346  0.15236550  0.12375492     0.17500
O870        O  0.51851101  0.20950734  0.09295697    -0.59500
H871        H  0.49869290  0.20788495  0.11653012     0.44500
H872        H  0.94994930  0.05288782  0.00951279     0.44500
C873        C  0.75855422  0.14554351  0.08814868    -0.04600
C874        C  0.78084171  0.12502254  0.09335477    -0.32000
C875        C  0.82057231  0.13804998  0.07310308     0.37200
C876        C  0.83744804  0.17083222  0.04425399    -0.05000
C877        C  0.81163209  0.18770089  0.03444546    -0.31900
C878        C  0.77294374  0.17583583  0.05691635     0.37100
H879        H  0.77061742  0.10233320  0.11823882     0.17500
O880        O  0.84454302  0.12132033  0.08624967    -0.59400
H881        H  0.82319281  0.21235987  0.01209226     0.17500
O882        O  0.75213294  0.19693024  0.05186188    -0.59500
H883        H  0.72862397  0.18180887  0.03028059     0.44500
H884        H  0.86245258  0.13756912  0.11132525     0.44500
C885        C  0.78582434  0.37046560  0.28883520    -0.04600
C886        C  0.81609927  0.41102448  0.28475192    -0.32000
C887        C  0.85647750  0.42791037  0.30616842     0.37200
C888        C  0.86809281  0.40408477  0.33036608    -0.05000
C889        C  0.84266602  0.36337286  0.32591002    -0.31900
C890        C  0.80132532  0.34633540  0.30683275     0.37100
H891        H  0.80706785  0.43048666  0.26863552     0.17500
O892        O  0.88116505  0.46801469  0.30894335    -0.59400
H893        H  0.85159695  0.34460908  0.34394479     0.17500
O894        O  0.77544456  0.30647384  0.31029955    -0.59500
H895        H  0.77128469  0.30095172  0.34229234     0.44500
H896        H  0.90390107  0.47546877  0.28651287     0.44500
C897        C  0.66274715  0.39568155  0.30959670    -0.04600
C898        C  0.68181095  0.43399928  0.29225875    -0.32000
C899        C  0.67462012  0.46264418  0.31149824     0.37200
C900        C  0.64724873  0.45298201  0.34791532    -0.05000
C901        C  0.62531750  0.41404672  0.36278570    -0.31900
C902        C  0.63341567  0.38571738  0.34468638     0.37100
H903        H  0.70422651  0.44231940  0.26523128     0.17500
O904        O  0.69710429  0.50061630  0.29673034    -0.59400
H905        H  0.60511170  0.40651895  0.39162965     0.17500
O906        O  0.61553378  0.34956521  0.36443215    -0.59500
H907        H  0.63707878  0.35187882  0.38678552     0.44500
H908        H  0.67680820  0.50351391  0.27672071     0.44500
C909        C  0.57400357  0.18721901  0.33462391    -0.04600
C910        C  0.61844091  0.20224107  0.33913097    -0.32000
C911        C  0.64783504  0.23795633  0.31994604     0.37200
C912        C  0.63331040  0.25851404  0.29287157    -0.05000
C913        C  0.58855795  0.24050770  0.28394178    -0.31900
C914        C  0.55898770  0.20561778  0.30534958     0.37100
H915        H  0.63049766  0.18884771  0.36224656     0.17500
O916        O  0.69013790  0.25454454  0.33274470    -0.59400
H917        H  0.57616690  0.25499456  0.26294307     0.17500
O918        O  0.51556124  0.19150259  0.30013330    -0.59500
H919        H  0.50565376  0.16952035  0.27886928     0.44500
H920        H  0.69267078  0.26972197  0.35972490     0.44500
N921        N  0.54814295  0.12769637  0.88252762    -0.02600
C922        C  0.54615531  0.15996676  0.86936390     0.00000
C923        C  0.53471621  0.17517194  0.90423898    -0.22900
C924        C  0.53254533  0.15348184  0.94048912    -0.23100
C925        C  0.54189277  0.12505993  0.92676437    -0.00100
H926        H  0.53508183  0.20287442  0.90486701     0.13700
H927        H  0.52955934  0.16067076  0.97409930     0.13700
N928        N  0.61803158  0.49029049  0.88845528    -0.02600
C929        C  0.65071213  0.48353675  0.87861672     0.00000
C930        C  0.67897275  0.49429412  0.91404639    -0.22900
C931        C  0.66202419  0.50617931  0.94703963    -0.23100
C932        C  0.62434027  0.50308820  0.93057987    -0.00100
H933        H  0.70544999  0.48855378  0.91782066     0.13700
H934        H  0.67314818  0.51177801  0.98088576     0.13700
C935        C  0.67763724  0.36821832  0.79473344     0.04000
C936        C  0.64838347  0.32796783  0.78946471    -0.12200
C937        C  0.66292622  0.30117535  0.78237277     0.01500
C938        C  0.70733733  0.31609872  0.77458483    -0.10700
C939        C  0.73802120  0.35603057  0.78260911     0.04000
C940        C  0.72211247  0.38164896  0.79218975    -0.10100
H941        H  0.61436271  0.31725118  0.79424528     0.09600
H942        H  0.71771112  0.29575151  0.76494385     0.07100
H943        H  0.74420639  0.41188455  0.80107899     0.06900
N944        N  0.93233395  0.44004747  0.88310636    -0.02600
C945        C  0.88954464  0.41816139  0.87350323     0.00000
C946        C  0.86539862  0.41151120  0.91119003    -0.22900
C947        C  0.89399672  0.42984873  0.94509273    -0.23100
C948        C  0.93447798  0.44691706  0.92688727    -0.00100
H949        H  0.83054353  0.39535513  0.91351995     0.13700
H950        H  0.88620168  0.43024401  0.97932758     0.13700
O951        O  0.57164674  0.12189219  0.99484411    -0.80000
O952        O  0.57271415  0.48773393  0.61304986    -0.64700
O953        O  0.59436715  0.06542242  0.52365537    -1.11300
C954        C  0.97387578  0.46656656  0.95323721     1.06900
O955        O  0.54626488  0.43645726  0.56753945    -0.77900
O956        O  0.57773013  0.47197890  0.98948532    -0.65500
Ni957      Ni  0.60809289  0.11769201  0.53917613     1.34900
C958        C  0.58913998  0.49762923  0.95943604     0.85600
O959        O  0.63684422  0.06148210  0.60125262    -0.78500
O960        O  0.64764895  0.12127336  0.58468180    -0.88700
C961        C  0.56161248  0.45204901  0.60478222     0.85200
O962        O  0.56138618  0.10134126  0.57850129    -0.66900
O963        O  0.99411008  0.44841640  0.96189368    -0.86200
C964        C  0.54257655  0.07219656  0.60405297     0.86000
C965        C  0.65757057  0.09869213  0.60547236     1.07600
H966        H  0.50645456  0.49065251  0.55538046     0.39400
O967        O  0.53120918  0.49561260  0.53810573    -1.08900
O968        O  0.57004550  0.01715864  0.95275542    -0.65500
Ni969      Ni  0.54054025  0.03339316  0.99384311     1.26300
O970        O  0.55216944  0.04497064  0.60674171    -0.65800
O971        O  0.98590138  0.50055179  0.96772191    -0.78100
C972        C  0.55526852  0.10471581  0.95855847     0.85400
O973        O  0.54938096  0.07111648  0.95016021    -0.65200
Ni974      Ni  0.52234863  0.44661507  0.51590166     1.27400
Ni975      Ni  0.58390339  0.02799380  0.56994810     1.26100
H976        H  0.61794078  0.06787368  0.00615576     0.39900
O977        O  0.56530033  0.44537259  0.75007496    -0.80000
O978        O  0.55406149  0.07132366  0.86458151    -0.64700
O979        O  0.53213181  0.49351928  0.77619591    -1.11300
C980        C  0.64905132  0.10140399  0.70559771     1.06900
O981        O  0.55278569  0.10865477  0.81149512    -0.77900
O982        O  0.54965668  0.09339457  0.72695178    -0.65500
Ni983      Ni  0.52178635  0.44235637  0.79006023     1.34900
C984        C  0.53278208  0.06282380  0.70322703     0.85600
O985        O  0.99312952  0.49442271  0.85533819    -0.78500
O986        O  0.97607620  0.43451407  0.83002980    -0.88700
C987        C  0.55328140  0.10198576  0.85220083     0.85200
O988        O  0.56362134  0.45677961  0.83637243    -0.66900
O989        O  0.63769715  0.12241271  0.72721615    -0.86200
C990        C  0.58503074  0.48780162  0.85901547     0.86000
C991        C  0.96871382  0.45714052  0.85408515     1.07600
H992        H  0.61695152  0.07116164  0.80181549     0.39400
O993        O  0.59047349  0.06489150  0.78647723    -1.08900
O994        O  0.54379219  0.03695879  0.70464020    -0.65500
Ni995      Ni  0.58124683  0.02769066  0.74151538     1.26300
O996        O  0.57945093  0.01740901  0.85620606    -0.65800
O997        O  0.63030181  0.06404888  0.70786669    -0.78100
C998        C  0.57311740  0.45821274  0.71069703     0.85400
O999        O  0.57168498  0.48845089  0.69956164    -0.65200
Ni1000     Ni  0.59471010  0.11340301  0.76985296     1.27400
Ni1001     Ni  0.54244397  0.03045852  0.82194973     1.26100
H1002       H  0.50628439  0.48923459  0.76100154     0.39900
N1003       N  0.69283216  0.11671316  0.63639907    -0.02600
C1004       C  0.73337965  0.14540409  0.62616566     0.00000
C1005       C  0.75420204  0.16825774  0.66257976    -0.22900
C1006       C  0.72537746  0.15404957  0.69632681    -0.23100
C1007       C  0.68825958  0.12261945  0.67948138    -0.00100
H1008       H  0.78752466  0.19159215  0.66474918     0.13700
H1009       H  0.73092959  0.16517399  0.72968614     0.10900
N1010       N  0.50731532  0.06877875  0.62961395    -0.02600
C1011       C  0.47556701  0.07552148  0.61553806     0.00000
C1012       C  0.44608339  0.06676649  0.64893650    -0.22900
C1013       C  0.46135655  0.05595737  0.68493232    -0.23100
C1014       C  0.49917895  0.05773321  0.67206139    -0.00100
H1015       H  0.41997469  0.07319832  0.64919568     0.13700
H1016       H  0.44899332  0.05182181  0.71805526     0.13700
C1017       C  0.95009547  0.18766746  0.52710498     0.04000
C1018       C  0.97463715  0.22886806  0.53012866    -0.12200
C1019       C  0.95472103  0.25161683  0.53650437     0.01500
C1020       C  0.90926419  0.23261611  0.53540743    -0.10700
C1021       C  0.88400474  0.19147131  0.53119986     0.04000
C1022       C  0.90494330  0.16993014  0.52380364    -0.10100
H1023       H  0.50943961  0.24288877  0.53170998     0.09600
H1024       H  0.89352793  0.24956377  0.54113324     0.07100
H1025       H  0.88557735  0.13841180  0.52041724     0.06900
N1026       N  0.57005130  0.42874472  0.63617849    -0.02600
C1027       C  0.57125051  0.39573907  0.62512765     0.00000
C1028       C  0.58995052  0.38547950  0.65868235    -0.22900
C1029       C  0.59839418  0.41151090  0.69236260    -0.23100
C1030       C  0.58473076  0.43712724  0.67847311    -0.00100
H1031       H  0.59140332  0.35867528  0.66096840     0.13700
H1032       H  0.60834913  0.40890443  0.72535129     0.13700
C1033       C  0.98148166  0.29314028  0.55268645    -0.04600
C1034       C  0.52361627  0.31725869  0.53654767    -0.32000
C1035       C  0.55294212  0.35229688  0.55812566     0.37200
C1036       C  0.53978966  0.36488565  0.59503186    -0.05000
C1037       C  0.99692203  0.34292276  0.60884065    -0.31900
C1038       C  0.96818092  0.30704847  0.58890961     0.37100
H1039       H  0.53470805  0.30784141  0.50858088     0.17500
O1040       O  0.59470523  0.37332733  0.54380320    -0.59400
H1041       H  0.98670496  0.35195989  0.63784481     0.17500
O1042       O  0.92858224  0.28452197  0.60787580    -0.59500
H1043       H  0.93255355  0.26736278  0.62914099     0.44500
H1044       H  0.61024990  0.36176580  0.55929554     0.44500
C1045       C  0.96911736  0.16235207  0.53889548    -0.04600
C1046       C  0.95002655  0.12363509  0.52227162    -0.32000
C1047       C  0.95521368  0.09481406  0.54430565     0.37200
C1048       C  0.98144289  0.10495206  0.58205950    -0.05000
C1049       C  0.50574962  0.14437754  0.59450591    -0.31900
C1050       C  0.49915729  0.17285536  0.57421558     0.37100
H1051       H  0.92803456  0.11481751  0.49441684     0.17500
O1052       O  0.93154764  0.05637039  0.53114871    -0.59400
H1053       H  0.52600360  0.15236567  0.62375479     0.17500
O1054       O  0.51851103  0.20950740  0.59295680    -0.59500
H1055       H  0.49869290  0.20788498  0.61652994     0.44500
H1056       H  0.94994940  0.05288797  0.50951294     0.44500
C1057       C  0.75855421  0.14554349  0.58814867    -0.04600
C1058       C  0.78084174  0.12502256  0.59335479    -0.32000
C1059       C  0.82057229  0.13805001  0.57310305     0.37200
C1060       C  0.83744804  0.17083225  0.54425400    -0.05000
C1061       C  0.81163208  0.18770092  0.53444545    -0.31900
C1062       C  0.77294368  0.17583578  0.55691629     0.37100
H1063       H  0.77061749  0.10233324  0.61823884     0.17500
O1064       O  0.84454300  0.12132029  0.58624953    -0.59400
H1065       H  0.82319281  0.21235992  0.51209226     0.17500
O1066       O  0.75213292  0.19693023  0.55186194    -0.59500
H1067       H  0.72862389  0.18180891  0.53028069     0.44500
H1068       H  0.86245234  0.13756879  0.61132501     0.44500
C1069       C  0.78582432  0.37046558  0.78883523    -0.04600
C1070       C  0.81609923  0.41102447  0.78475197    -0.32000
C1071       C  0.85647751  0.42791033  0.80616838     0.37200
C1072       C  0.86809275  0.40408472  0.83036611    -0.05000
C1073       C  0.84266595  0.36337281  0.82591005    -0.31900
C1074       C  0.80132532  0.34633536  0.80683265     0.37100
H1075       H  0.80706778  0.43048665  0.76863565     0.17500
O1076       O  0.88116501  0.46801466  0.80894342    -0.59400
H1077       H  0.85159683  0.34460902  0.84394488     0.17500
O1078       O  0.77544456  0.30647380  0.81029935    -0.59500
H1079       H  0.77128461  0.30095162  0.84229212     0.44500
H1080       H  0.90390109  0.47546884  0.78651300     0.44500
C1081       C  0.66274713  0.39568153  0.80959666    -0.04600
C1082       C  0.68181091  0.43399924  0.79225868    -0.32000
C1083       C  0.67462009  0.46264415  0.81149821     0.37200
C1084       C  0.64724867  0.45298197  0.84791524    -0.05000
C1085       C  0.62531748  0.41404669  0.86278565    -0.31900
C1086       C  0.63341562  0.38571735  0.84468629     0.37100
H1087       H  0.70422644  0.44231933  0.76523120     0.17500
O1088       O  0.69710429  0.50061629  0.79673039    -0.59400
H1089       H  0.60511175  0.40651893  0.89162964     0.17500
O1090       O  0.61553372  0.34956516  0.86443200    -0.59500
H1091       H  0.63707872  0.35187874  0.88678535     0.44500
H1092       H  0.67680820  0.50351393  0.77672078     0.44500
C1093       C  0.57400354  0.18721898  0.83462384    -0.04600
C1094       C  0.61844088  0.20224106  0.83913099    -0.32000
C1095       C  0.64783501  0.23795632  0.81994607     0.37200
C1096       C  0.63331040  0.25851406  0.79287166    -0.05000
C1097       C  0.58855798  0.24050778  0.78394191    -0.31900
C1098       C  0.55898772  0.20561784  0.80534961     0.37100
H1099       H  0.63049761  0.18884769  0.86224659     0.17500
O1100       O  0.69013791  0.25454449  0.83274460    -0.59400
H1101       H  0.57616697  0.25499470  0.76294327     0.17500
O1102       O  0.51556129  0.19150280  0.80013340    -0.59500
H1103       H  0.50565370  0.16952057  0.77886937     0.44500
H1104       H  0.69267091  0.26972175  0.85972461     0.44500
N1105       N  0.54814303  0.62769641  0.38252777    -0.02600
C1106       C  0.54615537  0.65996679  0.36936401     0.00000
C1107       C  0.53471628  0.67517203  0.40423904    -0.22900
C1108       C  0.53254539  0.65348194  0.44048921    -0.23100
C1109       C  0.54189284  0.62506001  0.42676451    -0.00100
H1110       H  0.53508193  0.70287453  0.40486698     0.13700
H1111       H  0.52955940  0.66067088  0.47409938     0.13700
N1112       N  0.61803155  0.99029045  0.38845530    -0.02600
C1113       C  0.65071215  0.98353674  0.37861678     0.00000
C1114       C  0.67897269  0.99429404  0.41404657    -0.22900
C1115       C  0.66202413  0.00617925  0.44703979    -0.23100
C1116       C  0.62434021  0.00308812  0.43057994    -0.00100
H1117       H  0.70544992  0.98855366  0.41782083     0.13700
H1118       H  0.67314810  0.01177806  0.48088597     0.13700
C1119       C  0.67763733  0.86821841  0.29473339     0.04000
C1120       C  0.64838352  0.82796792  0.28946462    -0.12200
C1121       C  0.66292623  0.80117538  0.28237268     0.01500
C1122       C  0.70733735  0.81609873  0.27458475    -0.10700
C1123       C  0.73802124  0.85603059  0.28260899     0.04000
C1124       C  0.72211256  0.88164902  0.29218963    -0.10100
H1125       H  0.61436277  0.81725132  0.29424519     0.09600
H1126       H  0.71771117  0.79575151  0.26494390     0.07100
H1127       H  0.74420655  0.91188461  0.30107887     0.06900
N1128       N  0.93233387  0.94004744  0.38310637    -0.02600
C1129       C  0.88954459  0.91816139  0.37350318     0.00000
C1130       C  0.86539855  0.91151124  0.41118994    -0.22900
C1131       C  0.89399660  0.92984869  0.44509270    -0.23100
C1132       C  0.93447787  0.94691703  0.42688727    -0.00100
H1133       H  0.83054346  0.89535521  0.41351977     0.13700
H1134       H  0.88620151  0.93024388  0.47932756     0.13700
O1135       O  0.57164679  0.62189232  0.49484420    -0.80000
O1136       O  0.57271425  0.98773397  0.11304986    -0.64700
O1137       O  0.59436717  0.56542241  0.02365542    -1.11300
C1138       C  0.97387568  0.96656652  0.45323726     1.06900
O1139       O  0.54626494  0.93645729  0.06753941    -0.77900
O1140       O  0.57773023  0.97197903  0.48948550    -0.65500
Ni1141     Ni  0.60809283  0.61769199  0.03917611     1.34900
C1142       C  0.58913993  0.99762919  0.45943607     0.85600
O1143       O  0.63684409  0.56148211  0.10125276    -0.78500
O1144       O  0.64764901  0.62127340  0.08468169    -0.88700
C1145       C  0.56161258  0.95204905  0.10478219     0.85200
O1146       O  0.56138621  0.60134128  0.07850138    -0.66900
O1147       O  0.99411002  0.94841638  0.46189372    -0.86200
C1148       C  0.54257654  0.57219656  0.10405301     0.86000
C1149       C  0.65757056  0.59869215  0.10547236     1.07600
H1150       H  0.50645401  0.99065231  0.05538072     0.39400
O1151       O  0.53120923  0.99561257  0.03810567    -1.08900
O1152       O  0.57004539  0.51715852  0.45275544    -0.65500
Ni1153     Ni  0.54054034  0.53339321  0.49384313     1.26300
O1154       O  0.55216941  0.54497063  0.10674176    -0.65800
O1155       O  0.98590125  0.00055173  0.46772203    -0.78100
C1156       C  0.55526860  0.60471591  0.45855859     0.85400
O1157       O  0.54938114  0.57111661  0.45016030    -0.65200
Ni1158     Ni  0.52234865  0.94661507  0.01590160     1.27400
Ni1159     Ni  0.58390336  0.52799379  0.06994815     1.26100
H1160       H  0.61794100  0.56787367  0.50615543     0.39900
O1161       O  0.56530030  0.94537267  0.25007499    -0.80000
O1162       O  0.55406162  0.57132371  0.36458163    -0.64700
O1163       O  0.53213177  0.99351931  0.27619591    -1.11300
C1164       C  0.64905129  0.60140393  0.20559770     1.06900
O1165       O  0.55278568  0.60865479  0.31149526    -0.77900
O1166       O  0.54965665  0.59339462  0.22695175    -0.65500
Ni1167     Ni  0.52178633  0.94235643  0.29006025     1.34900
C1168       C  0.53278205  0.56282383  0.20322702     0.85600
O1169       O  0.99312948  0.99442272  0.35533834    -0.78500
O1170       O  0.97607614  0.93451416  0.33002977    -0.88700
C1171       C  0.55328144  0.60198578  0.35220096     0.85200
O1172       O  0.56362130  0.95677958  0.33637245    -0.66900
O1173       O  0.63769714  0.62241266  0.22721618    -0.86200
C1174       C  0.58503076  0.98780161  0.35901544     0.86000
C1175       C  0.96871374  0.95714054  0.35408518     1.07600
H1176       H  0.61695106  0.57116155  0.30181510     0.39400
O1177       O  0.59047350  0.56489151  0.28647721    -1.08900
O1178       O  0.54379222  0.53695886  0.20464015    -0.65500
Ni1179     Ni  0.58124679  0.52769066  0.24151534     1.26300
O1180       O  0.57945102  0.51740910  0.35620606    -0.65800
O1181       O  0.63030175  0.56404884  0.20786663    -0.78100
C1182       C  0.57311732  0.95821274  0.21069702     0.85400
O1183       O  0.57168490  0.98845088  0.19956158    -0.65200
Ni1184     Ni  0.59471005  0.61340300  0.26985298     1.27400
Ni1185     Ni  0.54244397  0.53045854  0.32194976     1.26100
H1186       H  0.50628496  0.98923470  0.26100185     0.39900
N1187       N  0.69283214  0.61671315  0.13639908    -0.02600
C1188       C  0.73337963  0.64540410  0.12616572     0.00000
C1189       C  0.75420198  0.66825770  0.16257990    -0.22900
C1190       C  0.72537739  0.65404949  0.19632695    -0.23100
C1191       C  0.68825957  0.62261935  0.17948146    -0.00100
H1192       H  0.78752459  0.69159217  0.16474930     0.13700
H1193       H  0.73092937  0.66517393  0.22968631     0.10900
N1194       N  0.50731525  0.56877870  0.12961394    -0.02600
C1195       C  0.47556690  0.57552133  0.11553798     0.00000
C1196       C  0.44608327  0.56676632  0.14893640    -0.22900
C1197       C  0.46135645  0.55595729  0.18493227    -0.23100
C1198       C  0.49917889  0.55773321  0.17206138    -0.00100
H1199       H  0.41997461  0.57319820  0.14919555     0.13700
H1200       H  0.44899318  0.55182178  0.21805519     0.13700
C1201       C  0.95009553  0.68766753  0.02710497     0.04000
C1202       C  0.97463718  0.72886812  0.03012876    -0.12200
C1203       C  0.95472104  0.75161690  0.03650433     0.01500
C1204       C  0.90926422  0.73261617  0.03540731    -0.10700
C1205       C  0.88400478  0.69147135  0.03119981     0.04000
C1206       C  0.90494336  0.66993021  0.02380358    -0.10100
H1207       H  0.50943963  0.74288881  0.03171027     0.09600
H1208       H  0.89352794  0.74956381  0.04113308     0.07100
H1209       H  0.88557743  0.63841186  0.02041726     0.06900
N1210       N  0.57005146  0.92874479  0.13617843    -0.02600
C1211       C  0.57125061  0.89573911  0.12512759     0.00000
C1212       C  0.58995052  0.88547948  0.15868232    -0.22900
C1213       C  0.59839400  0.91151078  0.19236263    -0.23100
C1214       C  0.58473070  0.93712720  0.17847312    -0.00100
H1215       H  0.59140331  0.85867526  0.16096840     0.13700
H1216       H  0.60834878  0.90890420  0.22535135     0.13700
C1217       C  0.98148165  0.79314035  0.05268638    -0.04600
C1218       C  0.52361639  0.81725864  0.03654778    -0.32000
C1219       C  0.55294215  0.85229691  0.05812563     0.37200
C1220       C  0.53978970  0.86488574  0.09503177    -0.05000
C1221       C  0.99692206  0.84292290  0.10884051    -0.31900
C1222       C  0.96818094  0.80704863  0.08890945     0.37100
H1223       H  0.53470823  0.80784126  0.00858110     0.17500
O1224       O  0.59470523  0.87332744  0.04380309    -0.59400
H1225       H  0.98670501  0.85196001  0.13784470     0.17500
O1226       O  0.92858235  0.78452203  0.10787580    -0.59500
H1227       H  0.93255378  0.76736314  0.12914064     0.44500
H1228       H  0.61024990  0.86176594  0.05929517     0.44500
C1229       C  0.96911734  0.66235206  0.03889553    -0.04600
C1230       C  0.95002646  0.62363506  0.02227167    -0.32000
C1231       C  0.95521364  0.59481399  0.04430561     0.37200
C1232       C  0.98144288  0.60495196  0.08205946    -0.05000
C1233       C  0.50574942  0.64437739  0.09450604    -0.31900
C1234       C  0.49915715  0.67285527  0.07421574     0.37100
H1235       H  0.92803447  0.61481752  0.99441687     0.17500
O1236       O  0.93154772  0.55637035  0.03114859    -0.59400
H1237       H  0.52600332  0.65236542  0.12375498     0.17500
O1238       O  0.51851087  0.70950728  0.09295703    -0.59500
H1239       H  0.49869272  0.70788483  0.11653016     0.44500
H1240       H  0.94994967  0.55288807  0.00951248     0.44500
C1241       C  0.75855419  0.64554355  0.08814870    -0.04600
C1242       C  0.78084167  0.62502257  0.09335479    -0.32000
C1243       C  0.82057227  0.63805002  0.07310311     0.37200
C1244       C  0.83744805  0.67083227  0.04425403    -0.05000
C1245       C  0.81163208  0.68770093  0.03444549    -0.31900
C1246       C  0.77294370  0.67583586  0.05691635     0.37100
H1247       H  0.77061732  0.60233319  0.11823879     0.17500
O1248       O  0.84454286  0.62132023  0.08624960    -0.59400
H1249       H  0.82319279  0.71235988  0.01209230     0.17500
O1250       O  0.75213294  0.69693031  0.05186190    -0.59500
H1251       H  0.72862390  0.68180893  0.03028037     0.44500
H1252       H  0.86245243  0.63756890  0.11132524     0.44500
C1253       C  0.78582434  0.87046560  0.28883511    -0.04600
C1254       C  0.81609927  0.91102451  0.28475179    -0.32000
C1255       C  0.85647752  0.92791038  0.30616828     0.37200
C1256       C  0.86809273  0.90408475  0.33036605    -0.05000
C1257       C  0.84266597  0.86337286  0.32591000    -0.31900
C1258       C  0.80132534  0.84633536  0.30683265     0.37100
H1259       H  0.80706783  0.93048667  0.26863535     0.17500
O1260       O  0.88116514  0.96801470  0.30894328    -0.59400
H1261       H  0.85159691  0.84460910  0.34394486     0.17500
O1262       O  0.77544462  0.80647382  0.31029943    -0.59500
H1263       H  0.77128456  0.80095172  0.34229264     0.44500
H1264       H  0.90390123  0.97546878  0.28651285     0.44500
C1265       C  0.66274722  0.89568160  0.30959677    -0.04600
C1266       C  0.68181100  0.93399934  0.29225884    -0.32000
C1267       C  0.67462007  0.96264420  0.31149825     0.37200
C1268       C  0.64724866  0.95298200  0.34791528    -0.05000
C1269       C  0.62531747  0.91404671  0.36278568    -0.31900
C1270       C  0.63341569  0.88571738  0.34468641     0.37100
H1271       H  0.70422660  0.94231952  0.26523143     0.17500
O1272       O  0.69710413  0.00061630  0.29673028    -0.59400
H1273       H  0.60511163  0.90651892  0.39162959     0.17500
O1274       O  0.61553366  0.84956515  0.36443208    -0.59500
H1275       H  0.63707853  0.85187860  0.38678551     0.44500
H1276       H  0.67680797  0.00351382  0.27672067     0.44500
C1277       C  0.57400356  0.68721897  0.33462386    -0.04600
C1278       C  0.61844091  0.70224106  0.33913094    -0.32000
C1279       C  0.64783503  0.73795636  0.31994606     0.37200
C1280       C  0.63331038  0.75851405  0.29287156    -0.05000
C1281       C  0.58855795  0.74050771  0.28394175    -0.31900
C1282       C  0.55898768  0.70561776  0.30534954     0.37100
H1283       H  0.63049771  0.68884771  0.36224650     0.17500
O1284       O  0.69013788  0.75454462  0.33274476    -0.59400
H1285       H  0.57616691  0.75499459  0.26294306     0.17500
O1286       O  0.51556125  0.69150271  0.30013335    -0.59500
H1287       H  0.50565353  0.66952018  0.27886936     0.44500
H1288       H  0.69267072  0.76972207  0.35972492     0.44500
N1289       N  0.54814298  0.62769638  0.88252764    -0.02600
C1290       C  0.54615533  0.65996675  0.86936390     0.00000
C1291       C  0.53471626  0.67517200  0.90423895    -0.22900
C1292       C  0.53254536  0.65348189  0.94048910    -0.23100
C1293       C  0.54189283  0.62505998  0.92676439    -0.00100
H1294       H  0.53508192  0.70287451  0.90486694     0.13700
H1295       H  0.52955934  0.66067079  0.97409928     0.13700
N1296       N  0.61803150  0.99029041  0.88845527    -0.02600
C1297       C  0.65071210  0.98353673  0.87861669     0.00000
C1298       C  0.67897267  0.99429402  0.91404642    -0.22900
C1299       C  0.66202411  0.00617922  0.94703965    -0.23100
C1300       C  0.62434021  0.00308814  0.93057985    -0.00100
H1301       H  0.70544992  0.98855366  0.91782068     0.13700
H1302       H  0.67314808  0.01177800  0.98088580     0.13700
C1303       C  0.67763732  0.86821838  0.79473345     0.04000
C1304       C  0.64838350  0.82796789  0.78946466    -0.12200
C1305       C  0.66292620  0.80117535  0.78237265     0.01500
C1306       C  0.70733733  0.81609871  0.77458478    -0.10700
C1307       C  0.73802121  0.85603055  0.78260909     0.04000
C1308       C  0.72211253  0.88164898  0.79218970    -0.10100
H1309       H  0.61436276  0.81725129  0.79424526     0.09600
H1310       H  0.71771114  0.79575149  0.76494391     0.07100
H1311       H  0.74420651  0.91188458  0.80107888     0.06900
N1312       N  0.93233388  0.94004745  0.88310638    -0.02600
C1313       C  0.88954458  0.91816144  0.87350324     0.00000
C1314       C  0.86539857  0.91151127  0.91119003    -0.22900
C1315       C  0.89399666  0.92984872  0.94509275    -0.23100
C1316       C  0.93447792  0.94691706  0.92688728    -0.00100
H1317       H  0.83054349  0.89535524  0.91351993     0.13700
H1318       H  0.88620157  0.93024394  0.97932760     0.13700
O1319       O  0.57164668  0.62189225  0.99484416    -0.80000
O1320       O  0.57271431  0.98773404  0.61304987    -0.64700
O1321       O  0.59436717  0.56542240  0.52365539    -1.11300
C1322       C  0.97387575  0.96656659  0.95323720     1.06900
O1323       O  0.54626491  0.93645734  0.56753950    -0.77900
O1324       O  0.57773016  0.97197898  0.98948531    -0.65500
Ni1325     Ni  0.60809285  0.61769198  0.53917614     1.34900
C1326       C  0.58913998  0.99762927  0.95943600     0.85600
O1327       O  0.63684413  0.56148207  0.60125261    -0.78500
O1328       O  0.64764892  0.62127337  0.58468179    -0.88700
C1329       C  0.56161258  0.95204910  0.60478223     0.85200
O1330       O  0.56138615  0.60134119  0.57850129    -0.66900
O1331       O  0.99411008  0.94841646  0.96189366    -0.86200
C1332       C  0.54257658  0.57219653  0.60405300     0.86000
C1333       C  0.65757051  0.59869211  0.60547236     1.07600
H1334       H  0.50645390  0.99065229  0.55538091     0.39400
O1335       O  0.53120922  0.99561260  0.53810574    -1.08900
O1336       O  0.57004544  0.51715853  0.95275543    -0.65500
Ni1337     Ni  0.54054033  0.53339320  0.99384309     1.26300
O1338       O  0.55216951  0.54497064  0.60674177    -0.65800
O1339       O  0.98590131  0.00055181  0.96772195    -0.78100
C1340       C  0.55526858  0.60471588  0.95855850     0.85400
O1341       O  0.54938114  0.57111659  0.95016021    -0.65200
Ni1342     Ni  0.52234866  0.94661511  0.51590169     1.27400
Ni1343     Ni  0.58390338  0.52799376  0.56994809     1.26100
H1344       H  0.61794071  0.56787364  0.00615582     0.39900
O1345       O  0.56530029  0.94537264  0.75007497    -0.80000
O1346       O  0.55406165  0.57132374  0.86458148    -0.64700
O1347       O  0.53213178  0.99351930  0.77619590    -1.11300
C1348       C  0.64905135  0.60140397  0.70559778     1.06900
O1349       O  0.55278575  0.60865485  0.81149512    -0.77900
O1350       O  0.54965682  0.59339465  0.72695172    -0.65500
Ni1351     Ni  0.52178630  0.94235639  0.79006021     1.34900
C1352       C  0.53278216  0.56282383  0.70322702     0.85600
O1353       O  0.99312940  0.99442270  0.85533819    -0.78500
O1354       O  0.97607612  0.93451410  0.83002978    -0.88700
C1355       C  0.55328147  0.60198581  0.85220082     0.85200
O1356       O  0.56362123  0.95677953  0.83637245    -0.66900
O1357       O  0.63769734  0.62241276  0.72721633    -0.86200
C1358       C  0.58503069  0.98780156  0.85901545     0.86000
C1359       C  0.96871372  0.95714051  0.85408514     1.07600
H1360       H  0.61695134  0.57116159  0.80181540     0.39400
O1361       O  0.59047351  0.56489152  0.78647723    -1.08900
O1362       O  0.54379222  0.53695880  0.70464022    -0.65500
Ni1363     Ni  0.58124682  0.52769065  0.74151538     1.26300
O1364       O  0.57945092  0.51740904  0.85620610    -0.65800
O1365       O  0.63030176  0.56404887  0.70786668    -0.78100
C1366       C  0.57311730  0.95821272  0.71069702     0.85400
O1367       O  0.57168487  0.98845087  0.69956161    -0.65200
Ni1368     Ni  0.59471019  0.61340308  0.76985300     1.27400
Ni1369     Ni  0.54244398  0.53045855  0.82194969     1.26100
H1370       H  0.50628497  0.98923470  0.76100186     0.39900
N1371       N  0.69283210  0.61671306  0.63639907    -0.02600
C1372       C  0.73337958  0.64540404  0.62616567     0.00000
C1373       C  0.75420194  0.66825768  0.66257978    -0.22900
C1374       C  0.72537739  0.65404947  0.69632684    -0.23100
C1375       C  0.68825956  0.62261933  0.67948142    -0.00100
H1376       H  0.78752454  0.69159216  0.66474916     0.13700
H1377       H  0.73092942  0.66517392  0.72968616     0.10900
N1378       N  0.50731531  0.56877867  0.62961393    -0.02600
C1379       C  0.47556698  0.57552138  0.61553803     0.00000
C1380       C  0.44608344  0.56676644  0.64893653    -0.22900
C1381       C  0.46135659  0.55595732  0.68493236    -0.23100
C1382       C  0.49917899  0.55773322  0.67206140    -0.00100
H1383       H  0.41997480  0.57319832  0.64919576     0.13700
H1384       H  0.44899333  0.55182173  0.71805529     0.13700
C1385       C  0.95009549  0.68766750  0.52710497     0.04000
C1386       C  0.97463715  0.72886811  0.53012864    -0.12200
C1387       C  0.95472102  0.75161688  0.53650436     0.01500
C1388       C  0.90926419  0.73261614  0.53540742    -0.10700
C1389       C  0.88400475  0.69147133  0.53119988     0.04000
C1390       C  0.90494333  0.66993018  0.52380365    -0.10100
H1391       H  0.50943958  0.74288877  0.53170993     0.09600
H1392       H  0.89352792  0.74956378  0.54113323     0.07100
H1393       H  0.88557743  0.63841184  0.52041725     0.06900
N1394       N  0.57005144  0.92874481  0.63617846    -0.02600
C1395       C  0.57125059  0.89573914  0.62512759     0.00000
C1396       C  0.58995054  0.88547952  0.65868232    -0.22900
C1397       C  0.59839403  0.91151080  0.69236266    -0.23100
C1398       C  0.58473071  0.93712721  0.67847314    -0.00100
H1399       H  0.59140335  0.85867531  0.66096833     0.13700
H1400       H  0.60834885  0.90890423  0.72535137     0.13700
C1401       C  0.98148165  0.79314035  0.55268644    -0.04600
C1402       C  0.52361633  0.81725866  0.53654778    -0.32000
C1403       C  0.55294213  0.85229689  0.55812569     0.37200
C1404       C  0.53978968  0.86488571  0.59503183    -0.05000
C1405       C  0.99692205  0.84292287  0.60884060    -0.31900
C1406       C  0.96818093  0.80704858  0.58890955     0.37100
H1407       H  0.53470810  0.80784132  0.50858104     0.17500
O1408       O  0.59470520  0.87332741  0.54380316    -0.59400
H1409       H  0.98670500  0.85195998  0.63784478     0.17500
O1410       O  0.92858235  0.78452203  0.60787586    -0.59500
H1411       H  0.93255382  0.76736290  0.62914100     0.44500
H1412       H  0.61024995  0.86176596  0.55929550     0.44500
C1413       C  0.96911733  0.66235205  0.53889549    -0.04600
C1414       C  0.95002651  0.62363503  0.52227164    -0.32000
C1415       C  0.95521372  0.59481398  0.54430560     0.37200
C1416       C  0.98144291  0.60495199  0.58205946    -0.05000
C1417       C  0.50574948  0.64437745  0.59450598    -0.31900
C1418       C  0.49915719  0.67285531  0.57421565     0.37100
H1419       H  0.92803452  0.61481746  0.49441687     0.17500
O1420       O  0.93154770  0.55637030  0.53114869    -0.59400
H1421       H  0.52600343  0.65236552  0.62375487     0.17500
O1422       O  0.51851097  0.70950737  0.59295678    -0.59500
H1423       H  0.49869286  0.70788495  0.61653026     0.44500
H1424       H  0.94994955  0.55288790  0.50951255     0.44500
C1425       C  0.75855417  0.64554348  0.58814872    -0.04600
C1426       C  0.78084170  0.62502254  0.59335482    -0.32000
C1427       C  0.82057226  0.63804995  0.57310305     0.37200
C1428       C  0.83744803  0.67083225  0.54425405    -0.05000
C1429       C  0.81163207  0.68770092  0.53444555    -0.31900
C1430       C  0.77294369  0.67583583  0.55691640     0.37100
H1431       H  0.77061739  0.60233319  0.61823886     0.17500
O1432       O  0.84454293  0.62132018  0.58624945    -0.59400
H1433       H  0.82319277  0.71235989  0.51209236     0.17500
O1434       O  0.75213292  0.69693027  0.55186200    -0.59500
H1435       H  0.72862387  0.68180890  0.53028047     0.44500
H1436       H  0.86245227  0.63756862  0.61132511     0.44500
C1437       C  0.78582432  0.87046558  0.78883521    -0.04600
C1438       C  0.81609924  0.91102449  0.78475189    -0.32000
C1439       C  0.85647749  0.92791036  0.80616837     0.37200
C1440       C  0.86809270  0.90408474  0.83036615    -0.05000
C1441       C  0.84266593  0.86337283  0.82591012    -0.31900
C1442       C  0.80132532  0.84633536  0.80683270     0.37100
H1443       H  0.80706781  0.93048664  0.76863544     0.17500
O1444       O  0.88116511  0.96801468  0.80894337    -0.59400
H1445       H  0.85159688  0.84460908  0.84394497     0.17500
O1446       O  0.77544463  0.80647376  0.81029930    -0.59500
H1447       H  0.77128448  0.80095155  0.84229211     0.44500
H1448       H  0.90390120  0.97546875  0.78651296     0.44500
C1449       C  0.66274720  0.89568160  0.80959671    -0.04600
C1450       C  0.68181096  0.93399932  0.79225876    -0.32000
C1451       C  0.67462005  0.96264418  0.81149822     0.37200
C1452       C  0.64724863  0.95298199  0.84791520    -0.05000
C1453       C  0.62531750  0.91404673  0.86278561    -0.31900
C1454       C  0.63341567  0.88571740  0.84468629     0.37100
H1455       H  0.70422651  0.94231947  0.76523132     0.17500
O1456       O  0.69710413  0.00061629  0.79673033    -0.59400
H1457       H  0.60511177  0.90651896  0.89162959     0.17500
O1458       O  0.61553368  0.84956522  0.86443199    -0.59500
H1459       H  0.63707868  0.85187873  0.88678534     0.44500
H1460       H  0.67680797  0.00351384  0.77672075     0.44500
C1461       C  0.57400356  0.68721893  0.83462382    -0.04600
C1462       C  0.61844090  0.70224107  0.83913099    -0.32000
C1463       C  0.64783500  0.73795635  0.81994608     0.37200
C1464       C  0.63331036  0.75851404  0.79287159    -0.05000
C1465       C  0.58855793  0.74050769  0.78394181    -0.31900
C1466       C  0.55898770  0.70561773  0.80534954     0.37100
H1467       H  0.63049767  0.68884774  0.86224659     0.17500
O1468       O  0.69013790  0.75454459  0.83274465    -0.59400
H1469       H  0.57616689  0.75499459  0.76294317     0.17500
O1470       O  0.51556125  0.69150267  0.80013342    -0.59500
H1471       H  0.50565358  0.66952042  0.77886945     0.44500
H1472       H  0.69267084  0.76972186  0.85972463     0.44500
loop_ 
_geom_bond_atom_site_label_1 
_geom_bond_atom_site_label_2 
_geom_bond_distance 
_geom_bond_site_symmetry_2 
_ccdc_geom_bond_type 
N1            C5   1.361       .  A
N1            C2   1.364       .  A
N1           C67   1.449       .  S
C2            C3   1.381       .  A
C2          C173   1.484       .  S
C3            C4   1.370       .  A
C3            H6   1.083       .  S
C4            C5   1.383       .  A
C4            H7   1.082       .  S
C5           C52   1.474       .  S
N8           C12   1.353       .  A
N8            C9   1.358       .  A
N8           C70   1.438       .  S
C9           C10   1.384       .  A
C9          C164   1.478       .  S
C10          C11   1.375       .  A
C10          H13   1.083       .  S
C11          C12   1.380       .  A
C11          H14   1.082       .  S
C12          C38   1.467       .  S
C15          C16   1.403       .  A
C15          C20   1.406       .  A
C15         C161   1.495       .  S
C16          C17   1.406       .  A
C16          H21   1.081       .  S
C17          C18   1.413       .  A
C17         C176   1.504       .  S
C18          C19   1.415       .  A
C18          H22   1.079       .  S
C19          C20   1.414       .  A
C19         C149   1.518       .  S
C20          H23   1.081       .  S
N24          C28   1.353       .  A
N24          C25   1.358       .  A
N24          C71   1.438       .  S
C25          C26   1.385       .  A
C25         C152   1.475       .  S
C26          C27   1.370       .  A
C26          H29   1.083       .  S
C27          C28   1.376       .  A
C27          H30   1.082       .  S
C28          C34   1.455       .  S
O31          C52   1.270       .  A
O31        Ni221   1.929       .  S
O32          C41   1.278       .  A
O32        Ni423   1.935       .  S
O33         Ni37   1.918       .  S
O33         Ni55   1.932       .  S
O33        Ni233   1.914   1_554  S
O33         H240   0.965       .  S
C34          O51   1.261       .  A
C34          O43   1.270       .  A
O35          C41   1.271       .  A
O35         Ni54   1.915       .  S
O36          C38   1.268       .  A
O36        Ni238   1.901       .  S
Ni37         O40   1.923       .  S
Ni37         O42   1.896       .  S
Ni37        O215   1.929   1_554  S
C38         O416   1.272       .  A
O39          C45   1.273       .  A
O39         Ni55   1.925       .  S
O40          C45   1.273       .  A
C41         N106   1.451       .  S
O42          C44   1.266       .  A
O43        Ni974   1.939       .  S
C44          N90   1.436       .  S
C44          O50   1.279       .  A
C45          N83   1.437       .  S
H46          O47   0.966       .  S
O47         Ni54   1.913       .  S
O47        Ni423   1.919       .  S
O47        Ni601   1.905   1_554  S
O48         C406   1.272   1_545  A
O48         Ni49   1.946       .  S
Ni49         O53   1.895       .  S
Ni49       O1155   1.890   1_455  S
Ni49        O217   1.914       .  S
Ni49        O599   1.905   1_545  S
O50         Ni55   1.942       .  S
O51       Ni1153   1.890       .  S
C52          O53   1.256       .  A
Ni54        O220   1.901   1_554  S
Ni54        O963   1.939   1_454  S
Ni55        O400   1.935   1_545  S
Ni55        O415   1.919   1_545  S
H56         O217   0.965       .  S
O57          C78   1.276       .  A
O57         Ni63   1.940       .  S
O58          C67   1.275       .  A
O58         Ni81   1.942       .  S
O59         Ni63   1.901       .  S
O59        Ni449   1.910       .  S
O59        Ni443   1.915       .  S
O59          H82   0.966       .  S
C60          C87   1.463       .  S
C60          O77   1.275       .  A
C60          O69   1.274       .  A
O61          C67   1.266       .  A
O61         Ni80   1.908       .  S
O62          C64   1.265       .  A
O62         Ni80   1.901       .  S
Ni63         O68   1.913       .  S
Ni63        O802   1.943   1_455  S
C64          C94   1.456   1_455  S
C64          O74   1.261       .  A
O65          C71   1.278       .  A
O65       Ni1185   1.917       .  S
O66          C71   1.280       .  A
O66        Ni799   1.943       .  S
O68          C70   1.269       .  A
O69         Ni80   1.913       .  S
C70         O444   1.278       .  A
H72          O73   0.966       .  S
O73         Ni81   1.910       .  S
O73         Ni75   1.907       .  S
O73         Ni80   1.903       .  S
O74         Ni75   1.908       .  S
Ni75         O77   1.920       .  S
Ni75        O447   1.898   1_545  S
Ni75        O427   1.915   1_545  S
O76         C438   1.278   1_545  A
O76         Ni81   1.936       .  S
C78         C110   1.475       .  S
C78          O79   1.260       .  A
O79        Ni443   1.898       .  S
Ni81       O1169   1.917   1_445  S
Ni81        O427   1.910   1_545  S
N83          C87   1.357       .  A
N83          C84   1.358       .  A
C84          C85   1.382       .  A
C84         C137   1.470       .  S
C85          C86   1.367       .  A
C85          H88   1.083       .  S
C86          C87   1.379       .  A
C86          H89   1.082       .  S
N90          C94   1.348   1_455  A
N90          C91   1.354   1_455  A
C91          C92   1.385       .  A
C91         C864   1.474       .  S
C92          C93   1.376       .  A
C92          H95   1.083       .  S
C93          C94   1.380       .  A
C93          H96   1.083       .  S
C97          C98   1.407       .  A
C97         C102   1.406       .  A
C97         C125   1.500       .  S
C98          C99   1.409       .  A
C98         H839   1.081       .  S
C99         C100   1.410       .  A
C99         C113   1.502       .  S
C100        C101   1.410       .  A
C100        H104   1.081       .  S
C101        C102   1.402       .  A
C101        C140   1.499       .  S
C102        H105   1.080       .  S
H103        C834   1.081   1_455  S
N106        C110   1.362       .  A
N106        C107   1.363       .  A
C107        C108   1.380       .  A
C107        C116   1.482       .  S
C108        C109   1.371       .  A
C108        H111   1.083       .  S
C109        C110   1.384       .  A
C109        H112   1.083       .  S
C113        C118   1.419       .  A
C113        C850   1.412       .  A
C114        C115   1.406       .  A
C114        C849   1.412   1_455  A
C114        H119   1.083       .  S
C115        C116   1.404       .  A
C115        O120   1.371       .  S
C116        C853   1.400   1_455  A
C117        C118   1.399       .  A
C117        C852   1.400       .  A
C117        H121   1.084       .  S
C118        O122   1.371       .  S
O120        H124   0.992       .  S
O122        H123   0.992       .  S
C125        C126   1.413       .  A
C125        C866   1.420       .  A
C126        C127   1.403       .  A
C126        H131   1.083   1_554  S
C127        C128   1.402       .  A
C127        O132   1.371       .  S
C128        C865   1.397       .  A
C128        C827   1.474       .  S
C129        C130   1.395   1_455  A
C129        C864   1.397   1_455  A
C129        H133   1.085       .  S
C130        C861   1.420       .  A
C130        O134   1.371   1_655  S
O132        H136   0.992       .  S
O134        H135   0.992   1_455  S
C137        C138   1.397       .  A
C137        C142   1.405       .  A
C138        C139   1.396       .  A
C138        H143   1.085       .  S
C139        C140   1.421       .  A
C139        O144   1.372       .  S
C140        C141   1.409       .  A
C141        C142   1.403       .  A
C141        H145   1.083       .  S
C142        O146   1.371       .  S
O144        H148   0.992       .  S
O146        H147   0.992       .  S
C149        C150   1.416       .  A
C149        C154   1.422       .  A
C150        C151   1.406       .  A
C150        H155   1.082       .  S
C151        C152   1.403       .  A
C151        O156   1.371       .  S
C152        C153   1.397       .  A
C153        C154   1.403       .  A
C153        H157   1.085       .  S
C154        O158   1.369       .  S
O156        H160   0.992       .  S
O158        H159   0.992       .  S
C161        C162   1.409       .  A
C161        C166   1.414       .  A
C162        C163   1.405       .  A
C162        H167   1.083       .  S
C163        C164   1.405       .  A
C163        O168   1.371       .  S
C164        C165   1.402       .  A
C165        C166   1.399       .  A
C165        H169   1.084       .  S
C166        O170   1.372       .  S
O168        H172   0.992       .  S
O170        H171   0.992       .  S
C173        C174   1.397       .  A
C173        C178   1.407       .  A
C174        C175   1.395       .  A
C174        H179   1.084       .  S
C175        C176   1.417       .  A
C175        O180   1.367       .  S
C176        C177   1.413       .  A
C177        C178   1.407       .  A
C177        H181   1.083       .  S
C178        O182   1.371       .  S
O180        H184   0.992       .  S
O182        H183   0.992       .  S
N185        C189   1.361       .  A
N185        C186   1.364       .  A
N185        C251   1.449       .  S
C186        C187   1.381       .  A
C186        C357   1.484       .  S
C187        C188   1.370       .  A
C187        H190   1.083       .  S
C188        C189   1.383       .  A
C188        H191   1.082       .  S
C189        C236   1.474       .  S
N192        C196   1.353       .  A
N192        C193   1.358       .  A
N192        C254   1.438       .  S
C193        C194   1.384       .  A
C193        C348   1.478       .  S
C194        C195   1.375       .  A
C194        H197   1.083       .  S
C195        C196   1.380       .  A
C195        H198   1.082       .  S
C196        C222   1.467       .  S
C199        C200   1.403       .  A
C199        C204   1.406       .  A
C199        C345   1.495       .  S
C200        C201   1.406       .  A
C200        H205   1.081       .  S
C201        C202   1.413       .  A
C201        C360   1.504       .  S
C202        C203   1.415       .  A
C202        H206   1.079       .  S
C203        C204   1.414       .  A
C203        C333   1.518       .  S
C204        H207   1.081       .  S
N208        C212   1.353       .  A
N208        C209   1.358       .  A
N208        C255   1.438       .  S
C209        C210   1.385       .  A
C209        C336   1.475       .  S
C210        C211   1.370       .  A
C210        H213   1.083       .  S
C211        C212   1.376       .  A
C211        H214   1.082       .  S
C212        C218   1.455       .  S
O215        C236   1.270       .  A
O216        C225   1.278       .  A
O216       Ni607   1.935       .  S
O217       Ni221   1.918       .  S
O217       Ni239   1.932       .  S
C218        O235   1.261       .  A
C218        O227   1.270       .  A
O219        C225   1.271       .  A
O219       Ni238   1.915       .  S
O220        C222   1.268       .  A
Ni221       O224   1.923       .  S
Ni221       O226   1.896       .  S
C222        O600   1.272       .  A
O223        C229   1.273       .  A
O223       Ni239   1.925       .  S
O224        C229   1.273       .  A
C225        N290   1.451       .  S
O226        C228   1.266       .  A
O227       Ni790   1.939   1_556  S
C228        N274   1.436       .  S
C228        O234   1.279       .  A
C229        N267   1.437       .  S
H230        O231   0.966       .  S
O231       Ni607   1.919       .  S
O231       Ni417   1.905       .  S
O231       Ni238   1.913       .  S
O232        C590   1.272   1_545  A
O232       Ni233   1.946       .  S
Ni233       O237   1.895       .  S
Ni233      O1339   1.890   1_455  S
Ni233       O415   1.905   1_546  S
O234       Ni239   1.942       .  S
O235      Ni1337   1.890       .  S
C236        O237   1.256       .  A
Ni238       O779   1.939   1_455  S
Ni239       O584   1.935   1_545  S
Ni239       O599   1.919   1_545  S
O241        C262   1.276       .  A
O241       Ni247   1.940       .  S
O242        C251   1.275       .  A
O242       Ni265   1.942       .  S
O243       Ni247   1.901       .  S
O243       Ni633   1.910       .  S
O243       Ni627   1.915       .  S
O243        H266   0.966       .  S
C244        C271   1.463       .  S
C244        O261   1.275       .  A
C244        O253   1.274       .  A
O245        C251   1.266       .  A
O245       Ni264   1.908       .  S
O246        C248   1.265       .  A
O246       Ni264   1.901       .  S
Ni247       O986   1.943   1_455  S
Ni247       O252   1.913       .  S
C248        C278   1.456   1_455  S
C248        O258   1.261       .  A
O249        C255   1.278       .  A
O249      Ni1369   1.917       .  S
O250        C255   1.280       .  A
O250       Ni983   1.943       .  S
O252        C254   1.269       .  A
O253       Ni264   1.913       .  S
C254        O628   1.278       .  A
H256        O257   0.966       .  S
O257       Ni265   1.910       .  S
O257       Ni259   1.907       .  S
O257       Ni264   1.903       .  S
O258       Ni259   1.908       .  S
Ni259       O631   1.898   1_545  S
Ni259       O261   1.920       .  S
Ni259       O611   1.915   1_545  S
O260        C622   1.278   1_545  A
O260       Ni265   1.936       .  S
C262        C294   1.475       .  S
C262        O263   1.260       .  A
O263       Ni627   1.898       .  S
Ni265      O1353   1.917   1_445  S
Ni265       O611   1.910   1_545  S
N267        C271   1.357       .  A
N267        C268   1.358       .  A
C268        C269   1.382       .  A
C268        C321   1.470       .  S
C269        C270   1.367       .  A
C269        H272   1.083       .  S
C270        C271   1.379       .  A
C270        H273   1.082       .  S
N274        C278   1.348   1_455  A
N274        C275   1.354   1_455  A
C275        C276   1.385       .  A
C275       C1048   1.474       .  S
C276        C277   1.376       .  A
C276        H279   1.083       .  S
C277        C278   1.380       .  A
C277        H280   1.083       .  S
C281        C282   1.407       .  A
C281        C286   1.406       .  A
C281        C309   1.500       .  S
C282        C283   1.409       .  A
C282       H1023   1.081       .  S
C283        C284   1.410       .  A
C283        C297   1.502       .  S
C284        C285   1.410       .  A
C284        H288   1.081       .  S
C285        C286   1.402       .  A
C285        C324   1.499       .  S
C286        H289   1.080       .  S
H287       C1018   1.081   1_455  S
N290        C294   1.362       .  A
N290        C291   1.363       .  A
C291        C292   1.380       .  A
C291        C300   1.482       .  S
C292        C293   1.371       .  A
C292        H295   1.083       .  S
C293        C294   1.384       .  A
C293        H296   1.083       .  S
C297       C1034   1.412       .  A
C297        C302   1.419       .  A
C298       C1033   1.412   1_455  A
C298        C299   1.406       .  A
C298        H303   1.083       .  S
C299        C300   1.404       .  A
C299        O304   1.371       .  S
C300       C1037   1.400   1_455  A
C301       C1036   1.400       .  A
C301        C302   1.399       .  A
C301        H305   1.084       .  S
C302        O306   1.371       .  S
O304        H308   0.992       .  S
O306        H307   0.992       .  S
C309        C310   1.413       .  A
C309       C1050   1.420       .  A
C310        C311   1.403       .  A
C310        H315   1.083       .  S
C311        C312   1.402       .  A
C311        O316   1.371       .  S
C312       C1049   1.397       .  A
C312       C1011   1.474       .  S
C313       C1048   1.397   1_455  A
C313        C314   1.395   1_455  A
C313        H317   1.085       .  S
C314       C1045   1.420       .  A
C314        O318   1.371   1_655  S
O316        H320   0.992       .  S
O318        H319   0.992   1_455  S
C321        C322   1.397       .  A
C321        C326   1.405       .  A
C322        C323   1.396       .  A
C322        H327   1.085       .  S
C323        C324   1.421       .  A
C323        O328   1.372       .  S
C324        C325   1.409       .  A
C325        C326   1.403       .  A
C325        H329   1.083       .  S
C326        O330   1.371       .  S
O328        H332   0.992       .  S
O330        H331   0.992       .  S
C333        C334   1.416       .  A
C333        C338   1.422       .  A
C334        C335   1.406       .  A
C334        H339   1.082       .  S
C335        C336   1.403       .  A
C335        O340   1.371       .  S
C336        C337   1.397       .  A
C337        C338   1.403       .  A
C337        H341   1.085       .  S
C338        O342   1.369       .  S
O340        H344   0.992       .  S
O342        H343   0.992       .  S
C345        C346   1.409       .  A
C345        C350   1.414       .  A
C346        C347   1.405       .  A
C346        H351   1.083       .  S
C347        C348   1.405       .  A
C347        O352   1.371       .  S
C348        C349   1.402       .  A
C349        C350   1.399       .  A
C349        H353   1.084       .  S
C350        O354   1.372       .  S
O352        H356   0.992       .  S
O354        H355   0.992       .  S
C357        C358   1.397       .  A
C357        C362   1.407       .  A
C358        C359   1.395       .  A
C358        H363   1.084       .  S
C359        C360   1.417       .  A
C359        O364   1.367       .  S
C360        C361   1.413       .  A
C361        C362   1.407       .  A
C361        H365   1.083       .  S
C362        O366   1.371       .  S
O364        H368   0.992       .  S
O366        H367   0.992       .  S
N369        C373   1.361       .  A
N369        C370   1.364       .  A
N369        C435   1.449       .  S
C370        C371   1.381       .  A
C370        C541   1.484       .  S
C371        C372   1.370       .  A
C371        H374   1.083       .  S
C372        C373   1.383       .  A
C372        H375   1.082       .  S
C373        C420   1.474       .  S
N376        C380   1.353   1_565  A
N376        C377   1.358       .  A
N376        C438   1.438       .  S
C377        C378   1.384       .  A
C377        C532   1.478       .  S
C378        C379   1.375   1_565  A
C378        H381   1.083       .  S
C379        C380   1.380       .  A
C379        H382   1.082       .  S
C380        C406   1.467   1_545  S
C383        C384   1.403       .  A
C383        C388   1.406       .  A
C383        C529   1.495       .  S
C384        C385   1.406       .  A
C384        H389   1.081       .  S
C385        C386   1.413       .  A
C385        C544   1.504       .  S
C386        C387   1.415       .  A
C386        H390   1.079       .  S
C387        C388   1.414       .  A
C387        C517   1.518       .  S
C388        H391   1.081       .  S
N392        C396   1.353       .  A
N392        C393   1.358       .  A
N392        C439   1.438       .  S
C393        C394   1.385       .  A
C393        C520   1.475       .  S
C394        C395   1.370       .  A
C394        H397   1.083       .  S
C395        C396   1.376       .  A
C395        H398   1.082       .  S
C396        C402   1.455       .  S
O399        C420   1.270       .  A
O399       Ni589   1.929       .  S
O400        C409   1.278       .  A
O401       Ni405   1.918       .  S
O401       Ni423   1.932       .  S
O401       Ni601   1.914   1_554  S
O401        H608   0.965       .  S
C402        O419   1.261   1_565  A
C402        O411   1.270       .  A
O403        C409   1.271       .  A
O403       Ni422   1.915       .  S
O404        C406   1.268       .  A
O404       Ni606   1.901       .  S
Ni405       O583   1.929   1_554  S
Ni405       O408   1.923       .  S
Ni405       O410   1.896       .  S
O407        C413   1.273       .  A
O407       Ni423   1.925       .  S
O408        C413   1.273       .  A
C409        N474   1.451       .  S
O410        C412   1.266       .  A
O411      Ni1342   1.939       .  S
C412        N458   1.436       .  S
C412        O418   1.279       .  A
C413        N451   1.437       .  S
H414        O415   0.966       .  S
O415       Ni422   1.913       .  S
O416       Ni417   1.946       .  S
Ni417       O421   1.895       .  S
Ni417       O787   1.890   1_455  S
Ni417       O585   1.914       .  S
O418       Ni423   1.942       .  S
O419       Ni785   1.890       .  S
C420        O421   1.256       .  A
Ni422       O588   1.901   1_554  S
Ni422      O1331   1.939   1_454  S
H424        O585   0.965       .  S
O425        C446   1.276       .  A
O425       Ni431   1.940       .  S
O426        C435   1.275       .  A
O426       Ni449   1.942       .  S
O427       Ni431   1.901       .  S
O427        H450   0.966       .  S
C428        C455   1.463       .  S
C428        O445   1.275       .  A
C428        O437   1.274       .  A
O429        C435   1.266       .  A
O429       Ni448   1.908       .  S
O430        C432   1.265       .  A
O430       Ni448   1.901       .  S
Ni431      O1170   1.943   1_455  S
Ni431       O436   1.913       .  S
C432        C462   1.456   1_455  S
C432        O442   1.261       .  A
O433        C439   1.278       .  A
O433       Ni817   1.917   1_565  S
O434        C439   1.280       .  A
O434      Ni1167   1.943       .  S
O436        C438   1.269       .  A
O437       Ni448   1.913       .  S
H440        O441   0.966       .  S
O441       Ni449   1.910       .  S
O441       Ni443   1.907       .  S
O441       Ni448   1.903       .  S
O442       Ni443   1.908       .  S
Ni443       O445   1.920       .  S
O444       Ni449   1.936       .  S
C446        C478   1.475       .  S
C446        O447   1.260       .  A
Ni449       O801   1.917   1_455  S
N451        C455   1.357       .  A
N451        C452   1.358       .  A
C452        C453   1.382       .  A
C452        C505   1.470       .  S
C453        C454   1.367       .  A
C453        H456   1.083       .  S
C454        C455   1.379       .  A
C454        H457   1.082       .  S
N458        C462   1.348   1_455  A
N458        C459   1.354   1_455  A
C459        C460   1.385       .  A
C459       C1232   1.474       .  S
C460        C461   1.376       .  A
C460        H463   1.083       .  S
C461        C462   1.380       .  A
C461        H464   1.083       .  S
C465        C466   1.407       .  A
C465        C470   1.406       .  A
C465        C493   1.500       .  S
C466        C467   1.409       .  A
C466       H1207   1.081       .  S
C467        C468   1.410       .  A
C467        C481   1.502       .  S
C468        C469   1.410       .  A
C468        H472   1.081       .  S
C469        C470   1.402       .  A
C469        C508   1.499       .  S
C470        H473   1.080       .  S
H471       C1202   1.081   1_455  S
N474        C478   1.362       .  A
N474        C475   1.363       .  A
C475        C476   1.380       .  A
C475        C484   1.482       .  S
C476        C477   1.371       .  A
C476        H479   1.083       .  S
C477        C478   1.384       .  A
C477        H480   1.083       .  S
C481       C1218   1.412       .  A
C481        C486   1.419       .  A
C482       C1217   1.412   1_455  A
C482        C483   1.406       .  A
C482        H487   1.083       .  S
C483        C484   1.404       .  A
C483        O488   1.371       .  S
C484       C1221   1.400   1_455  A
C485       C1220   1.400       .  A
C485        C486   1.399       .  A
C485        H489   1.084       .  S
C486        O490   1.371       .  S
O488        H492   0.992       .  S
O490        H491   0.992       .  S
C493        C494   1.413       .  A
C493       C1234   1.420       .  A
C494        C495   1.403       .  A
C494        H499   1.083   1_554  S
C495        C496   1.402       .  A
C495        O500   1.371       .  S
C496       C1233   1.397       .  A
C496       C1195   1.474       .  S
C497       C1232   1.397   1_455  A
C497        C498   1.395   1_455  A
C497        H501   1.085       .  S
C498       C1229   1.420       .  A
C498        O502   1.371   1_655  S
O500        H504   0.992       .  S
O502        H503   0.992   1_455  S
C505        C506   1.397       .  A
C505        C510   1.405       .  A
C506        C507   1.396       .  A
C506        H511   1.085       .  S
C507        C508   1.421       .  A
C507        O512   1.372       .  S
C508        C509   1.409       .  A
C509        C510   1.403       .  A
C509        H513   1.083       .  S
C510        O514   1.371       .  S
O512        H516   0.992       .  S
O514        H515   0.992       .  S
C517        C518   1.416       .  A
C517        C522   1.422       .  A
C518        C519   1.406       .  A
C518        H523   1.082       .  S
C519        C520   1.403       .  A
C519        O524   1.371       .  S
C520        C521   1.397       .  A
C521        C522   1.403       .  A
C521        H525   1.085       .  S
C522        O526   1.369       .  S
O524        H528   0.992       .  S
O526        H527   0.992       .  S
C529        C530   1.409       .  A
C529        C534   1.414       .  A
C530        C531   1.405       .  A
C530        H535   1.083       .  S
C531        C532   1.405       .  A
C531        O536   1.371   1_565  S
C532        C533   1.402       .  A
C533        C534   1.399       .  A
C533        H537   1.084       .  S
C534        O538   1.372       .  S
O536        H540   0.992       .  S
O538        H539   0.992       .  S
C541        C542   1.397       .  A
C541        C546   1.407       .  A
C542        C543   1.395       .  A
C542        H547   1.084       .  S
C543        C544   1.417       .  A
C543        O548   1.367       .  S
C544        C545   1.413       .  A
C545        C546   1.407       .  A
C545        H549   1.083       .  S
C546        O550   1.371       .  S
O548        H552   0.992       .  S
O550        H551   0.992       .  S
N553        C557   1.361       .  A
N553        C554   1.364       .  A
N553        C619   1.449       .  S
C554        C555   1.381       .  A
C554        C725   1.484       .  S
C555        C556   1.370       .  A
C555        H558   1.083       .  S
C556        C557   1.383       .  A
C556        H559   1.082       .  S
C557        C604   1.474       .  S
N560        C564   1.353   1_565  A
N560        C561   1.358       .  A
N560        C622   1.438       .  S
C561        C562   1.384       .  A
C561        C716   1.478       .  S
C562        C563   1.375   1_565  A
C562        H565   1.083       .  S
C563        C564   1.380       .  A
C563        H566   1.082       .  S
C564        C590   1.467   1_545  S
C567        C568   1.403       .  A
C567        C572   1.406       .  A
C567        C713   1.495       .  S
C568        C569   1.406       .  A
C568        H573   1.081       .  S
C569        C570   1.413       .  A
C569        C728   1.504       .  S
C570        C571   1.415       .  A
C570        H574   1.079       .  S
C571        C572   1.414       .  A
C571        C701   1.518       .  S
C572        H575   1.081       .  S
N576        C580   1.353       .  A
N576        C577   1.358       .  A
N576        C623   1.438       .  S
C577        C578   1.385       .  A
C577        C704   1.475       .  S
C578        C579   1.370       .  A
C578        H581   1.083       .  S
C579        C580   1.376       .  A
C579        H582   1.082       .  S
C580        C586   1.455       .  S
O583        C604   1.270       .  A
O584        C593   1.278       .  A
O585       Ni589   1.918       .  S
O585       Ni607   1.932       .  S
C586        O603   1.261   1_565  A
C586        O595   1.270       .  A
O587        C593   1.271       .  A
O587       Ni606   1.915       .  S
O588        C590   1.268       .  A
Ni589       O592   1.923       .  S
Ni589       O594   1.896       .  S
O591        C597   1.273       .  A
O591       Ni607   1.925       .  S
O592        C597   1.273       .  A
C593        N658   1.451       .  S
O594        C596   1.266       .  A
O595      Ni1158   1.939   1_556  S
C596        N642   1.436       .  S
C596        O602   1.279       .  A
C597        N635   1.437       .  S
H598        O599   0.966       .  S
O599       Ni606   1.913       .  S
O600       Ni601   1.946       .  S
Ni601       O605   1.895       .  S
Ni601       O971   1.890   1_455  S
O602       Ni607   1.942       .  S
O603       Ni969   1.890       .  S
C604        O605   1.256       .  A
Ni606      O1147   1.939   1_455  S
O609        C630   1.276       .  A
O609       Ni615   1.940       .  S
O610        C619   1.275       .  A
O610       Ni633   1.942       .  S
O611       Ni615   1.901       .  S
O611        H634   0.966       .  S
C612        C639   1.463       .  S
C612        O629   1.275       .  A
C612        O621   1.274       .  A
O613        C619   1.266       .  A
O613       Ni632   1.908       .  S
O614        C616   1.265       .  A
O614       Ni632   1.901       .  S
Ni615      O1354   1.943   1_455  S
Ni615       O620   1.913       .  S
C616        C646   1.456   1_455  S
C616        O626   1.261       .  A
O617        C623   1.278       .  A
O617      Ni1001   1.917   1_565  S
O618        C623   1.280       .  A
O618      Ni1351   1.943       .  S
O620        C622   1.269       .  A
O621       Ni632   1.913       .  S
H624        O625   0.966       .  S
O625       Ni633   1.910       .  S
O625       Ni627   1.907       .  S
O625       Ni632   1.903       .  S
O626       Ni627   1.908       .  S
Ni627       O629   1.920       .  S
O628       Ni633   1.936       .  S
C630        C662   1.475       .  S
C630        O631   1.260       .  A
Ni633       O985   1.917   1_455  S
N635        C639   1.357       .  A
N635        C636   1.358       .  A
C636        C637   1.382       .  A
C636        C689   1.470       .  S
C637        C638   1.367       .  A
C637        H640   1.083       .  S
C638        C639   1.379       .  A
C638        H641   1.082       .  S
N642        C646   1.348   1_455  A
N642        C643   1.354   1_455  A
C643        C644   1.385       .  A
C643       C1416   1.474       .  S
C644        C645   1.376       .  A
C644        H647   1.083       .  S
C645        C646   1.380       .  A
C645        H648   1.083       .  S
C649        C650   1.407       .  A
C649        C654   1.406       .  A
C649        C677   1.500       .  S
C650        C651   1.409       .  A
C650       H1391   1.081       .  S
C651        C652   1.410       .  A
C651        C665   1.502       .  S
C652        C653   1.410       .  A
C652        H656   1.081       .  S
C653        C654   1.402       .  A
C653        C692   1.499       .  S
C654        H657   1.080       .  S
H655       C1386   1.081   1_455  S
N658        C662   1.362       .  A
N658        C659   1.363       .  A
C659        C660   1.380       .  A
C659        C668   1.482       .  S
C660        C661   1.371       .  A
C660        H663   1.083       .  S
C661        C662   1.384       .  A
C661        H664   1.083       .  S
C665       C1402   1.412       .  A
C665        C670   1.419       .  A
C666       C1401   1.412   1_455  A
C666        C667   1.406       .  A
C666        H671   1.083       .  S
C667        C668   1.404       .  A
C667        O672   1.371       .  S
C668       C1405   1.400   1_455  A
C669       C1404   1.400       .  A
C669        C670   1.399       .  A
C669        H673   1.084       .  S
C670        O674   1.371       .  S
O672        H676   0.992       .  S
O674        H675   0.992       .  S
C677        C678   1.413       .  A
C677       C1418   1.420       .  A
C678        C679   1.403       .  A
C678        H683   1.083       .  S
C679        C680   1.402       .  A
C679        O684   1.371       .  S
C680       C1417   1.397       .  A
C680       C1379   1.474       .  S
C681       C1416   1.397   1_455  A
C681        C682   1.395   1_455  A
C681        H685   1.085       .  S
C682       C1413   1.420       .  A
C682        O686   1.371   1_655  S
O684        H688   0.992       .  S
O686        H687   0.992   1_455  S
C689        C690   1.397       .  A
C689        C694   1.405       .  A
C690        C691   1.396       .  A
C690        H695   1.085       .  S
C691        C692   1.421       .  A
C691        O696   1.372       .  S
C692        C693   1.409       .  A
C693        C694   1.403       .  A
C693        H697   1.083       .  S
C694        O698   1.371       .  S
O696        H700   0.992       .  S
O698        H699   0.992       .  S
C701        C702   1.416       .  A
C701        C706   1.422       .  A
C702        C703   1.406       .  A
C702        H707   1.082       .  S
C703        C704   1.403       .  A
C703        O708   1.371       .  S
C704        C705   1.397       .  A
C705        C706   1.403       .  A
C705        H709   1.085       .  S
C706        O710   1.369       .  S
O708        H712   0.992       .  S
O710        H711   0.992       .  S
C713        C714   1.409       .  A
C713        C718   1.414       .  A
C714        C715   1.405       .  A
C714        H719   1.083       .  S
C715        C716   1.405       .  A
C715        O720   1.371   1_565  S
C716        C717   1.402       .  A
C717        C718   1.399       .  A
C717        H721   1.084       .  S
C718        O722   1.372       .  S
O720        H724   0.992       .  S
O722        H723   0.992       .  S
C725        C726   1.397       .  A
C725        C730   1.407       .  A
C726        C727   1.395       .  A
C726        H731   1.084       .  S
C727        C728   1.417       .  A
C727        O732   1.367       .  S
C728        C729   1.413       .  A
C729        C730   1.407       .  A
C729        H733   1.083       .  S
C730        O734   1.371       .  S
O732        H736   0.992       .  S
O734        H735   0.992       .  S
N737        C741   1.361       .  A
N737        C738   1.364       .  A
N737        C803   1.449       .  S
C738        C739   1.381       .  A
C738        C909   1.484       .  S
C739        C740   1.370       .  A
C739        H742   1.083       .  S
C740        C741   1.383       .  A
C740        H743   1.082       .  S
C741        C788   1.474       .  S
N744        C748   1.353       .  A
N744        C745   1.358       .  A
N744        C806   1.438       .  S
C745        C746   1.384       .  A
C745        C900   1.478       .  S
C746        C747   1.375       .  A
C746        H749   1.083       .  S
C747        C748   1.380       .  A
C747        H750   1.082       .  S
C748        C774   1.467       .  S
C751        C752   1.403       .  A
C751        C756   1.406       .  A
C751        C897   1.495       .  S
C752        C753   1.406       .  A
C752        H757   1.081       .  S
C753        C754   1.413       .  A
C753        C912   1.504       .  S
C754        C755   1.415       .  A
C754        H758   1.079       .  S
C755        C756   1.414       .  A
C755        C885   1.518       .  S
C756        H759   1.081       .  S
N760        C764   1.353       .  A
N760        C761   1.358       .  A
N760        C807   1.438       .  S
C761        C762   1.385       .  A
C761        C888   1.475       .  S
C762        C763   1.370       .  A
C762        H765   1.083       .  S
C763        C764   1.376       .  A
C763        H766   1.082       .  S
C764        C770   1.455       .  S
O767        C788   1.270       .  A
O767       Ni957   1.929       .  S
O768        C777   1.278       .  A
O768      Ni1159   1.935       .  S
O769       Ni773   1.918       .  S
O769       Ni791   1.932       .  S
O769       Ni969   1.914   1_554  S
O769        H976   0.965       .  S
C770        O787   1.261       .  A
C770        O779   1.270       .  A
O771        C777   1.271       .  A
O771       Ni790   1.915       .  S
O772        C774   1.268       .  A
O772       Ni974   1.901       .  S
Ni773       O951   1.929   1_554  S
Ni773       O776   1.923       .  S
Ni773       O778   1.896       .  S
C774       O1152   1.272       .  A
O775        C781   1.273       .  A
O775       Ni791   1.925       .  S
O776        C781   1.273       .  A
C777        N842   1.451       .  S
O778        C780   1.266       .  A
C780        N826   1.436       .  S
C780        O786   1.279       .  A
C781        N819   1.437       .  S
H782        O783   0.966       .  S
O783      Ni1159   1.919       .  S
O783      Ni1337   1.905   1_554  S
O783       Ni790   1.913       .  S
O784       C1142   1.272   1_545  A
O784       Ni785   1.946       .  S
Ni785       O789   1.895       .  S
Ni785       O953   1.914       .  S
Ni785      O1335   1.905   1_545  S
O786       Ni791   1.942       .  S
C788        O789   1.256       .  A
Ni790       O956   1.901   1_554  S
Ni791      O1136   1.935   1_545  S
Ni791      O1151   1.919   1_545  S
H792        O953   0.965       .  S
O793        C814   1.276       .  A
O793       Ni799   1.940       .  S
O794        C803   1.275       .  A
O794       Ni817   1.942       .  S
O795       Ni799   1.901       .  S
O795      Ni1185   1.910       .  S
O795      Ni1179   1.915       .  S
O795        H818   0.966       .  S
C796        C823   1.463       .  S
C796        O813   1.275       .  A
C796        O805   1.274       .  A
O797        C803   1.266       .  A
O797       Ni816   1.908       .  S
O798        C800   1.265       .  A
O798       Ni816   1.901       .  S
Ni799       O804   1.913       .  S
C800        C830   1.456       .  S
C800        O810   1.261       .  A
O801        C807   1.278       .  A
O802        C807   1.280       .  A
O804        C806   1.269       .  A
O805       Ni816   1.913       .  S
C806       O1180   1.278       .  A
H808        O809   0.966       .  S
O809       Ni817   1.910       .  S
O809       Ni811   1.907       .  S
O809       Ni816   1.903       .  S
O810       Ni811   1.908       .  S
Ni811      O1183   1.898   1_545  S
Ni811       O813   1.920       .  S
Ni811      O1163   1.915   1_545  S
O812       C1174   1.278   1_545  A
O812       Ni817   1.936       .  S
C814        C846   1.475       .  S
C814        O815   1.260       .  A
O815      Ni1179   1.898       .  S
Ni817      O1163   1.910   1_545  S
N819        C823   1.357       .  A
N819        C820   1.358       .  A
C820        C821   1.382       .  A
C820        C873   1.470       .  S
C821        C822   1.367       .  A
C821        H824   1.083       .  S
C822        C823   1.379       .  A
C822        H825   1.082       .  S
N826        C830   1.348       .  A
N826        C827   1.354       .  A
C827        C828   1.385       .  A
C828        C829   1.376       .  A
C828        H831   1.083       .  S
C829        C830   1.380       .  A
C829        H832   1.083       .  S
C833        C834   1.407       .  A
C833        C838   1.406       .  A
C833        C861   1.500       .  S
C834        C835   1.409       .  A
C835        C836   1.410       .  A
C835        C849   1.502       .  S
C836        C837   1.410       .  A
C836        H840   1.081       .  S
C837        C838   1.402       .  A
C837        C876   1.499       .  S
C838        H841   1.080       .  S
N842        C846   1.362       .  A
N842        C843   1.363       .  A
C843        C844   1.380       .  A
C843        C852   1.482       .  S
C844        C845   1.371       .  A
C844        H847   1.083       .  S
C845        C846   1.384       .  A
C845        H848   1.083       .  S
C849        C854   1.419       .  A
C850        C851   1.406       .  A
C850        H855   1.083       .  S
C851        C852   1.404       .  A
C851        O856   1.371       .  S
C853        C854   1.399       .  A
C853        H857   1.084       .  S
C854        O858   1.371       .  S
O856        H860   0.992       .  S
O858        H859   0.992       .  S
C861        C862   1.413       .  A
C862        C863   1.403       .  A
C862        H867   1.083   1_554  S
C863        C864   1.402       .  A
C863        O868   1.371       .  S
C865        C866   1.395       .  A
C865        H869   1.085       .  S
C866        O870   1.371       .  S
O868        H872   0.992       .  S
O870        H871   0.992       .  S
C873        C874   1.397       .  A
C873        C878   1.405       .  A
C874        C875   1.396       .  A
C874        H879   1.085       .  S
C875        C876   1.421       .  A
C875        O880   1.372       .  S
C876        C877   1.409       .  A
C877        C878   1.403       .  A
C877        H881   1.083       .  S
C878        O882   1.371       .  S
O880        H884   0.992       .  S
O882        H883   0.992       .  S
C885        C886   1.416       .  A
C885        C890   1.422       .  A
C886        C887   1.406       .  A
C886        H891   1.082       .  S
C887        C888   1.403       .  A
C887        O892   1.371       .  S
C888        C889   1.397       .  A
C889        C890   1.403       .  A
C889        H893   1.085       .  S
C890        O894   1.369       .  S
O892        H896   0.992       .  S
O894        H895   0.992       .  S
C897        C898   1.409       .  A
C897        C902   1.414       .  A
C898        C899   1.405       .  A
C898        H903   1.083       .  S
C899        C900   1.405       .  A
C899        O904   1.371       .  S
C900        C901   1.402       .  A
C901        C902   1.399       .  A
C901        H905   1.084       .  S
C902        O906   1.372       .  S
O904        H908   0.992       .  S
O906        H907   0.992       .  S
C909        C910   1.397       .  A
C909        C914   1.407       .  A
C910        C911   1.395       .  A
C910        H915   1.084       .  S
C911        C912   1.417       .  A
C911        O916   1.367       .  S
C912        C913   1.413       .  A
C913        C914   1.407       .  A
C913        H917   1.083       .  S
C914        O918   1.371       .  S
O916        H920   0.992       .  S
O918        H919   0.992       .  S
N921        C925   1.361       .  A
N921        C922   1.364       .  A
N921        C987   1.449       .  S
C922        C923   1.381       .  A
C922       C1093   1.484       .  S
C923        C924   1.370       .  A
C923        H926   1.083       .  S
C924        C925   1.383       .  A
C924        H927   1.082       .  S
C925        C972   1.474       .  S
N928        C932   1.353       .  A
N928        C929   1.358       .  A
N928        C990   1.438       .  S
C929        C930   1.384       .  A
C929       C1084   1.478       .  S
C930        C931   1.375       .  A
C930        H933   1.083       .  S
C931        C932   1.380       .  A
C931        H934   1.082       .  S
C932        C958   1.467       .  S
C935        C936   1.403       .  A
C935        C940   1.406       .  A
C935       C1081   1.495       .  S
C936        C937   1.406       .  A
C936        H941   1.081       .  S
C937        C938   1.413       .  A
C937       C1096   1.504       .  S
C938        C939   1.415       .  A
C938        H942   1.079       .  S
C939        C940   1.414       .  A
C939       C1069   1.518       .  S
C940        H943   1.081       .  S
N944        C948   1.353       .  A
N944        C945   1.358       .  A
N944        C991   1.438       .  S
C945        C946   1.385       .  A
C945       C1072   1.475       .  S
C946        C947   1.370       .  A
C946        H949   1.083       .  S
C947        C948   1.376       .  A
C947        H950   1.082       .  S
C948        C954   1.455       .  S
O951        C972   1.270       .  A
O952        C961   1.278       .  A
O952      Ni1343   1.935       .  S
O953       Ni957   1.918       .  S
O953       Ni975   1.932       .  S
C954        O971   1.261       .  A
C954        O963   1.270       .  A
O955        C961   1.271       .  A
O955       Ni974   1.915       .  S
O956        C958   1.268       .  A
Ni957       O960   1.923       .  S
Ni957       O962   1.896       .  S
C958       O1336   1.272       .  A
O959        C965   1.273       .  A
O959       Ni975   1.925       .  S
O960        C965   1.273       .  A
C961       N1026   1.451       .  S
O962        C964   1.266       .  A
C964       N1010   1.436       .  S
C964        O970   1.279       .  A
C965       N1003   1.437       .  S
H966        O967   0.966       .  S
O967      Ni1343   1.919       .  S
O967      Ni1153   1.905       .  S
O967       Ni974   1.913       .  S
O968       C1326   1.272   1_545  A
O968       Ni969   1.946       .  S
Ni969       O973   1.895       .  S
Ni969      O1151   1.905   1_546  S
O970       Ni975   1.942       .  S
C972        O973   1.256       .  A
Ni975      O1320   1.935   1_545  S
Ni975      O1335   1.919   1_545  S
O977        C998   1.276       .  A
O977       Ni983   1.940       .  S
O978        C987   1.275       .  A
O978      Ni1001   1.942       .  S
O979       Ni983   1.901       .  S
O979      Ni1369   1.910       .  S
O979      Ni1363   1.915       .  S
O979       H1002   0.966       .  S
C980       C1007   1.463       .  S
C980        O997   1.275       .  A
C980        O989   1.274       .  A
O981        C987   1.266       .  A
O981      Ni1000   1.908       .  S
O982        C984   1.265       .  A
O982      Ni1000   1.901       .  S
Ni983       O988   1.913       .  S
C984       C1014   1.456       .  S
C984        O994   1.261       .  A
O985        C991   1.278       .  A
O986        C991   1.280       .  A
O988        C990   1.269       .  A
O989      Ni1000   1.913       .  S
C990       O1364   1.278       .  A
H992        O993   0.966       .  S
O993      Ni1001   1.910       .  S
O993       Ni995   1.907       .  S
O993      Ni1000   1.903       .  S
O994       Ni995   1.908       .  S
Ni995      O1367   1.898   1_545  S
Ni995       O997   1.920       .  S
Ni995      O1347   1.915   1_545  S
O996       C1358   1.278   1_545  A
O996      Ni1001   1.936       .  S
C998       C1030   1.475       .  S
C998        O999   1.260       .  A
O999      Ni1363   1.898       .  S
Ni1001     O1347   1.910   1_545  S
N1003      C1007   1.357       .  A
N1003      C1004   1.358       .  A
C1004      C1005   1.382       .  A
C1004      C1057   1.470       .  S
C1005      C1006   1.367       .  A
C1005      H1008   1.083       .  S
C1006      C1007   1.379       .  A
C1006      H1009   1.082       .  S
N1010      C1014   1.348       .  A
N1010      C1011   1.354       .  A
C1011      C1012   1.385       .  A
C1012      C1013   1.376       .  A
C1012      H1015   1.083       .  S
C1013      C1014   1.380       .  A
C1013      H1016   1.083       .  S
C1017      C1018   1.407       .  A
C1017      C1022   1.406       .  A
C1017      C1045   1.500       .  S
C1018      C1019   1.409       .  A
C1019      C1020   1.410       .  A
C1019      C1033   1.502       .  S
C1020      C1021   1.410       .  A
C1020      H1024   1.081       .  S
C1021      C1022   1.402       .  A
C1021      C1060   1.499       .  S
C1022      H1025   1.080       .  S
N1026      C1030   1.362       .  A
N1026      C1027   1.363       .  A
C1027      C1028   1.380       .  A
C1027      C1036   1.482       .  S
C1028      C1029   1.371       .  A
C1028      H1031   1.083       .  S
C1029      C1030   1.384       .  A
C1029      H1032   1.083       .  S
C1033      C1038   1.419       .  A
C1034      C1035   1.406       .  A
C1034      H1039   1.083       .  S
C1035      C1036   1.404       .  A
C1035      O1040   1.371       .  S
C1037      C1038   1.399       .  A
C1037      H1041   1.084       .  S
C1038      O1042   1.371       .  S
O1040      H1044   0.992       .  S
O1042      H1043   0.992       .  S
C1045      C1046   1.413       .  A
C1046      C1047   1.403       .  A
C1046      H1051   1.083       .  S
C1047      C1048   1.402       .  A
C1047      O1052   1.371       .  S
C1049      C1050   1.395       .  A
C1049      H1053   1.085       .  S
C1050      O1054   1.371       .  S
O1052      H1056   0.992       .  S
O1054      H1055   0.992       .  S
C1057      C1058   1.397       .  A
C1057      C1062   1.405       .  A
C1058      C1059   1.396       .  A
C1058      H1063   1.085       .  S
C1059      C1060   1.421       .  A
C1059      O1064   1.372       .  S
C1060      C1061   1.409       .  A
C1061      C1062   1.403       .  A
C1061      H1065   1.083       .  S
C1062      O1066   1.371       .  S
O1064      H1068   0.992       .  S
O1066      H1067   0.992       .  S
C1069      C1070   1.416       .  A
C1069      C1074   1.422       .  A
C1070      C1071   1.406       .  A
C1070      H1075   1.082       .  S
C1071      C1072   1.403       .  A
C1071      O1076   1.371       .  S
C1072      C1073   1.397       .  A
C1073      C1074   1.403       .  A
C1073      H1077   1.085       .  S
C1074      O1078   1.369       .  S
O1076      H1080   0.992       .  S
O1078      H1079   0.992       .  S
C1081      C1082   1.409       .  A
C1081      C1086   1.414       .  A
C1082      C1083   1.405       .  A
C1082      H1087   1.083       .  S
C1083      C1084   1.405       .  A
C1083      O1088   1.371       .  S
C1084      C1085   1.402       .  A
C1085      C1086   1.399       .  A
C1085      H1089   1.084       .  S
C1086      O1090   1.372       .  S
O1088      H1092   0.992       .  S
O1090      H1091   0.992       .  S
C1093      C1094   1.397       .  A
C1093      C1098   1.407       .  A
C1094      C1095   1.395       .  A
C1094      H1099   1.084       .  S
C1095      C1096   1.417       .  A
C1095      O1100   1.367       .  S
C1096      C1097   1.413       .  A
C1097      C1098   1.407       .  A
C1097      H1101   1.083       .  S
C1098      O1102   1.371       .  S
O1100      H1104   0.992       .  S
O1102      H1103   0.992       .  S
N1105      C1109   1.361       .  A
N1105      C1106   1.364       .  A
N1105      C1171   1.449       .  S
C1106      C1107   1.381       .  A
C1106      C1277   1.484       .  S
C1107      C1108   1.370       .  A
C1107      H1110   1.083       .  S
C1108      C1109   1.383       .  A
C1108      H1111   1.082       .  S
C1109      C1156   1.474       .  S
N1112      C1116   1.353   1_565  A
N1112      C1113   1.358       .  A
N1112      C1174   1.438       .  S
C1113      C1114   1.384       .  A
C1113      C1268   1.478       .  S
C1114      C1115   1.375   1_565  A
C1114      H1117   1.083       .  S
C1115      C1116   1.380       .  A
C1115      H1118   1.082       .  S
C1116      C1142   1.467   1_545  S
C1119      C1120   1.403       .  A
C1119      C1124   1.406       .  A
C1119      C1265   1.495       .  S
C1120      C1121   1.406       .  A
C1120      H1125   1.081       .  S
C1121      C1122   1.413       .  A
C1121      C1280   1.504       .  S
C1122      C1123   1.415       .  A
C1122      H1126   1.079       .  S
C1123      C1124   1.414       .  A
C1123      C1253   1.518       .  S
C1124      H1127   1.081       .  S
N1128      C1132   1.353       .  A
N1128      C1129   1.358       .  A
N1128      C1175   1.438       .  S
C1129      C1130   1.385       .  A
C1129      C1256   1.475       .  S
C1130      C1131   1.370       .  A
C1130      H1133   1.083       .  S
C1131      C1132   1.376       .  A
C1131      H1134   1.082       .  S
C1132      C1138   1.455       .  S
O1135      C1156   1.270       .  A
O1135     Ni1325   1.929       .  S
O1136      C1145   1.278       .  A
O1137     Ni1141   1.918       .  S
O1137     Ni1159   1.932       .  S
O1137     Ni1337   1.914   1_554  S
O1137      H1344   0.965       .  S
C1138      O1155   1.261   1_565  A
C1138      O1147   1.270       .  A
O1139      C1145   1.271       .  A
O1139     Ni1158   1.915       .  S
O1140      C1142   1.268       .  A
O1140     Ni1342   1.901       .  S
Ni1141     O1319   1.929   1_554  S
Ni1141     O1144   1.923       .  S
Ni1141     O1146   1.896       .  S
O1143      C1149   1.273       .  A
O1143     Ni1159   1.925       .  S
O1144      C1149   1.273       .  A
C1145      N1210   1.451       .  S
O1146      C1148   1.266       .  A
C1148      N1194   1.436       .  S
C1148      O1154   1.279       .  A
C1149      N1187   1.437       .  S
H1150      O1151   0.966       .  S
O1151     Ni1158   1.913       .  S
O1152     Ni1153   1.946       .  S
Ni1153     O1157   1.895       .  S
Ni1153     O1321   1.914       .  S
O1154     Ni1159   1.942       .  S
C1156      O1157   1.256       .  A
Ni1158     O1324   1.901   1_554  S
H1160      O1321   0.965       .  S
O1161      C1182   1.276       .  A
O1161     Ni1167   1.940       .  S
O1162      C1171   1.275       .  A
O1162     Ni1185   1.942       .  S
O1163     Ni1167   1.901       .  S
O1163      H1186   0.966       .  S
C1164      C1191   1.463       .  S
C1164      O1181   1.275       .  A
C1164      O1173   1.274       .  A
O1165      C1171   1.266       .  A
O1165     Ni1184   1.908       .  S
O1166      C1168   1.265       .  A
O1166     Ni1184   1.901       .  S
Ni1167     O1172   1.913       .  S
C1168      C1198   1.456       .  S
C1168      O1178   1.261       .  A
O1169      C1175   1.278       .  A
O1170      C1175   1.280       .  A
O1172      C1174   1.269       .  A
O1173     Ni1184   1.913       .  S
H1176      O1177   0.966       .  S
O1177     Ni1185   1.910       .  S
O1177     Ni1179   1.907       .  S
O1177     Ni1184   1.903       .  S
O1178     Ni1179   1.908       .  S
Ni1179     O1181   1.920       .  S
O1180     Ni1185   1.936       .  S
C1182      C1214   1.475       .  S
C1182      O1183   1.260       .  A
N1187      C1191   1.357       .  A
N1187      C1188   1.358       .  A
C1188      C1189   1.382       .  A
C1188      C1241   1.470       .  S
C1189      C1190   1.367       .  A
C1189      H1192   1.083       .  S
C1190      C1191   1.379       .  A
C1190      H1193   1.082       .  S
N1194      C1198   1.348       .  A
N1194      C1195   1.354       .  A
C1195      C1196   1.385       .  A
C1196      C1197   1.376       .  A
C1196      H1199   1.083       .  S
C1197      C1198   1.380       .  A
C1197      H1200   1.083       .  S
C1201      C1202   1.407       .  A
C1201      C1206   1.406       .  A
C1201      C1229   1.500       .  S
C1202      C1203   1.409       .  A
C1203      C1204   1.410       .  A
C1203      C1217   1.502       .  S
C1204      C1205   1.410       .  A
C1204      H1208   1.081       .  S
C1205      C1206   1.402       .  A
C1205      C1244   1.499       .  S
C1206      H1209   1.080       .  S
N1210      C1214   1.362       .  A
N1210      C1211   1.363       .  A
C1211      C1212   1.380       .  A
C1211      C1220   1.482       .  S
C1212      C1213   1.371       .  A
C1212      H1215   1.083       .  S
C1213      C1214   1.384       .  A
C1213      H1216   1.083       .  S
C1217      C1222   1.419       .  A
C1218      C1219   1.406       .  A
C1218      H1223   1.083       .  S
C1219      C1220   1.404       .  A
C1219      O1224   1.371       .  S
C1221      C1222   1.399       .  A
C1221      H1225   1.084       .  S
C1222      O1226   1.371       .  S
O1224      H1228   0.992       .  S
O1226      H1227   0.992       .  S
C1229      C1230   1.413       .  A
C1230      C1231   1.403       .  A
C1230      H1235   1.083   1_554  S
C1231      C1232   1.402       .  A
C1231      O1236   1.371       .  S
C1233      C1234   1.395       .  A
C1233      H1237   1.085       .  S
C1234      O1238   1.371       .  S
O1236      H1240   0.992       .  S
O1238      H1239   0.992       .  S
C1241      C1242   1.397       .  A
C1241      C1246   1.405       .  A
C1242      C1243   1.396       .  A
C1242      H1247   1.085       .  S
C1243      C1244   1.421       .  A
C1243      O1248   1.372       .  S
C1244      C1245   1.409       .  A
C1245      C1246   1.403       .  A
C1245      H1249   1.083       .  S
C1246      O1250   1.371       .  S
O1248      H1252   0.992       .  S
O1250      H1251   0.992       .  S
C1253      C1254   1.416       .  A
C1253      C1258   1.422       .  A
C1254      C1255   1.406       .  A
C1254      H1259   1.082       .  S
C1255      C1256   1.403       .  A
C1255      O1260   1.371       .  S
C1256      C1257   1.397       .  A
C1257      C1258   1.403       .  A
C1257      H1261   1.085       .  S
C1258      O1262   1.369       .  S
O1260      H1264   0.992       .  S
O1262      H1263   0.992       .  S
C1265      C1266   1.409       .  A
C1265      C1270   1.414       .  A
C1266      C1267   1.405       .  A
C1266      H1271   1.083       .  S
C1267      C1268   1.405       .  A
C1267      O1272   1.371   1_565  S
C1268      C1269   1.402       .  A
C1269      C1270   1.399       .  A
C1269      H1273   1.084       .  S
C1270      O1274   1.372       .  S
O1272      H1276   0.992       .  S
O1274      H1275   0.992       .  S
C1277      C1278   1.397       .  A
C1277      C1282   1.407       .  A
C1278      C1279   1.395       .  A
C1278      H1283   1.084       .  S
C1279      C1280   1.417       .  A
C1279      O1284   1.367       .  S
C1280      C1281   1.413       .  A
C1281      C1282   1.407       .  A
C1281      H1285   1.083       .  S
C1282      O1286   1.371       .  S
O1284      H1288   0.992       .  S
O1286      H1287   0.992       .  S
N1289      C1293   1.361       .  A
N1289      C1290   1.364       .  A
N1289      C1355   1.449       .  S
C1290      C1291   1.381       .  A
C1290      C1461   1.484       .  S
C1291      C1292   1.370       .  A
C1291      H1294   1.083       .  S
C1292      C1293   1.383       .  A
C1292      H1295   1.082       .  S
C1293      C1340   1.474       .  S
N1296      C1300   1.353   1_565  A
N1296      C1297   1.358       .  A
N1296      C1358   1.438       .  S
C1297      C1298   1.384       .  A
C1297      C1452   1.478       .  S
C1298      C1299   1.375   1_565  A
C1298      H1301   1.083       .  S
C1299      C1300   1.380       .  A
C1299      H1302   1.082       .  S
C1300      C1326   1.467   1_545  S
C1303      C1304   1.403       .  A
C1303      C1308   1.406       .  A
C1303      C1449   1.495       .  S
C1304      C1305   1.406       .  A
C1304      H1309   1.081       .  S
C1305      C1306   1.413       .  A
C1305      C1464   1.504       .  S
C1306      C1307   1.415       .  A
C1306      H1310   1.079       .  S
C1307      C1308   1.414       .  A
C1307      C1437   1.518       .  S
C1308      H1311   1.081       .  S
N1312      C1316   1.353       .  A
N1312      C1313   1.358       .  A
N1312      C1359   1.438       .  S
C1313      C1314   1.385       .  A
C1313      C1440   1.475       .  S
C1314      C1315   1.370       .  A
C1314      H1317   1.083       .  S
C1315      C1316   1.376       .  A
C1315      H1318   1.082       .  S
C1316      C1322   1.455       .  S
O1319      C1340   1.270       .  A
O1320      C1329   1.278       .  A
O1321     Ni1325   1.918       .  S
O1321     Ni1343   1.932       .  S
C1322      O1339   1.261   1_565  A
C1322      O1331   1.270       .  A
O1323      C1329   1.271       .  A
O1323     Ni1342   1.915       .  S
O1324      C1326   1.268       .  A
Ni1325     O1328   1.923       .  S
Ni1325     O1330   1.896       .  S
O1327      C1333   1.273       .  A
O1327     Ni1343   1.925       .  S
O1328      C1333   1.273       .  A
C1329      N1394   1.451       .  S
O1330      C1332   1.266       .  A
C1332      N1378   1.436       .  S
C1332      O1338   1.279       .  A
C1333      N1371   1.437       .  S
H1334      O1335   0.966       .  S
O1335     Ni1342   1.913       .  S
O1336     Ni1337   1.946       .  S
Ni1337     O1341   1.895       .  S
O1338     Ni1343   1.942       .  S
C1340      O1341   1.256       .  A
O1345      C1366   1.276       .  A
O1345     Ni1351   1.940       .  S
O1346      C1355   1.275       .  A
O1346     Ni1369   1.942       .  S
O1347     Ni1351   1.901       .  S
O1347      H1370   0.966       .  S
C1348      C1375   1.463       .  S
C1348      O1365   1.275       .  A
C1348      O1357   1.274       .  A
O1349      C1355   1.266       .  A
O1349     Ni1368   1.908       .  S
O1350      C1352   1.265       .  A
O1350     Ni1368   1.901       .  S
Ni1351     O1356   1.913       .  S
C1352      C1382   1.456       .  S
C1352      O1362   1.261       .  A
O1353      C1359   1.278       .  A
O1354      C1359   1.280       .  A
O1356      C1358   1.269       .  A
O1357     Ni1368   1.913       .  S
H1360      O1361   0.966       .  S
O1361     Ni1369   1.910       .  S
O1361     Ni1363   1.907       .  S
O1361     Ni1368   1.903       .  S
O1362     Ni1363   1.908       .  S
Ni1363     O1365   1.920       .  S
O1364     Ni1369   1.936       .  S
C1366      C1398   1.475       .  S
C1366      O1367   1.260       .  A
N1371      C1375   1.357       .  A
N1371      C1372   1.358       .  A
C1372      C1373   1.382       .  A
C1372      C1425   1.470       .  S
C1373      C1374   1.367       .  A
C1373      H1376   1.083       .  S
C1374      C1375   1.379       .  A
C1374      H1377   1.082       .  S
N1378      C1382   1.348       .  A
N1378      C1379   1.354       .  A
C1379      C1380   1.385       .  A
C1380      C1381   1.376       .  A
C1380      H1383   1.083       .  S
C1381      C1382   1.380       .  A
C1381      H1384   1.083       .  S
C1385      C1386   1.407       .  A
C1385      C1390   1.406       .  A
C1385      C1413   1.500       .  S
C1386      C1387   1.409       .  A
C1387      C1388   1.410       .  A
C1387      C1401   1.502       .  S
C1388      C1389   1.410       .  A
C1388      H1392   1.081       .  S
C1389      C1390   1.402       .  A
C1389      C1428   1.499       .  S
C1390      H1393   1.080       .  S
N1394      C1398   1.362       .  A
N1394      C1395   1.363       .  A
C1395      C1396   1.380       .  A
C1395      C1404   1.482       .  S
C1396      C1397   1.371       .  A
C1396      H1399   1.083       .  S
C1397      C1398   1.384       .  A
C1397      H1400   1.083       .  S
C1401      C1406   1.419       .  A
C1402      C1403   1.406       .  A
C1402      H1407   1.083       .  S
C1403      C1404   1.404       .  A
C1403      O1408   1.371       .  S
C1405      C1406   1.399       .  A
C1405      H1409   1.084       .  S
C1406      O1410   1.371       .  S
O1408      H1412   0.992       .  S
O1410      H1411   0.992       .  S
C1413      C1414   1.413       .  A
C1414      C1415   1.403       .  A
C1414      H1419   1.083       .  S
C1415      C1416   1.402       .  A
C1415      O1420   1.371       .  S
C1417      C1418   1.395       .  A
C1417      H1421   1.085       .  S
C1418      O1422   1.371       .  S
O1420      H1424   0.992       .  S
O1422      H1423   0.992       .  S
C1425      C1426   1.397       .  A
C1425      C1430   1.405       .  A
C1426      C1427   1.396       .  A
C1426      H1431   1.085       .  S
C1427      C1428   1.421       .  A
C1427      O1432   1.372       .  S
C1428      C1429   1.409       .  A
C1429      C1430   1.403       .  A
C1429      H1433   1.083       .  S
C1430      O1434   1.371       .  S
O1432      H1436   0.992       .  S
O1434      H1435   0.992       .  S
C1437      C1438   1.416       .  A
C1437      C1442   1.422       .  A
C1438      C1439   1.406       .  A
C1438      H1443   1.082       .  S
C1439      C1440   1.403       .  A
C1439      O1444   1.371       .  S
C1440      C1441   1.397       .  A
C1441      C1442   1.403       .  A
C1441      H1445   1.085       .  S
C1442      O1446   1.369       .  S
O1444      H1448   0.992       .  S
O1446      H1447   0.992       .  S
C1449      C1450   1.409       .  A
C1449      C1454   1.414       .  A
C1450      C1451   1.405       .  A
C1450      H1455   1.083       .  S
C1451      C1452   1.405       .  A
C1451      O1456   1.371   1_565  S
C1452      C1453   1.402       .  A
C1453      C1454   1.399       .  A
C1453      H1457   1.084       .  S
C1454      O1458   1.372       .  S
O1456      H1460   0.992       .  S
O1458      H1459   0.992       .  S
C1461      C1462   1.397       .  A
C1461      C1466   1.407       .  A
C1462      C1463   1.395       .  A
C1462      H1467   1.084       .  S
C1463      C1464   1.417       .  A
C1463      O1468   1.367       .  S
C1464      C1465   1.413       .  A
C1465      C1466   1.407       .  A
C1465      H1469   1.083       .  S
C1466      O1470   1.371       .  S
O1468      H1472   0.992       .  S
O1470      H1471   0.992       .  S
