geometry optimzed in LAMMPS
_audit_creation_date              2020-12-01 
_audit_creation_method            'lammps2cif' 
_symmetry_space_group_name_H-M    'P1' 
_symmetry_Int_Tables_number       1 
_symmetry_cell_setting            triclinic 
loop_ 
_symmetry_equiv_pos_as_xyz 
  x,y,z 
_cell_length_a                    29.99040223 
_cell_length_b                    25.94121142142141 
_cell_length_c                    43.4316217483127 
_cell_angle_alpha                 90.2007374714448 
_cell_angle_beta                  89.95968429718585 
_cell_angle_gamma                 89.96727454834605 
loop_ 
_atom_site_label 
_atom_site_type_symbol 
_atom_site_fract_x 
_atom_site_fract_y 
_atom_site_fract_z 
_atom_site_charge 
O1          O  0.16537205  0.00370298  0.04320761    -0.74300
O2          O  0.16115737  0.99818509  0.45601616    -0.74300
O3          O  0.16302234  0.07631646  0.99841783    -0.74400
O4          O  0.16186578  0.92591432  0.50056052    -0.74400
O5          O  0.08939408  0.92817486  0.00088591    -0.74400
O6          O  0.08776798  0.07367897  0.49994090    -0.74400
O7          O  0.08691667  0.99841050  0.45679697    -0.74300
O8          O  0.09114178  0.00303125  0.04451425    -0.74400
Ni9        Ni  0.16628849  0.00229321  0.99930596     1.25400
Ni10       Ni  0.08525863  0.99997626  0.50082629     1.25400
C11         C  0.12885556  0.00370638  0.05841071     0.87900
C12         C  0.12374092  0.99796099  0.44183859     0.87800
C13         C  0.12562047  0.10042251  0.99810536     0.87800
C14         C  0.12646886  0.90373521  0.99988179     0.88000
O15         O  0.09200679  0.00101242  0.20613247    -0.74300
O16         O  0.09074652  0.99756658  0.29386244    -0.74300
O17         O  0.09118130  0.07320841  0.25132038    -0.74400
O18         O  0.09137655  0.92566176  0.24895646    -0.74400
O19         O  0.16565795  0.92562886  0.24926988    -0.74400
O20         O  0.16544715  0.07345641  0.25166714    -0.74400
O21         O  0.16500306  0.99757216  0.29426328    -0.74300
O22         O  0.16624951  0.00117402  0.20622537    -0.74400
Ni23       Ni  0.08873242  0.99941154  0.24995333     1.25400
Ni24       Ni  0.16827262  0.99951469  0.25028030     1.25400
C25         C  0.12915156  0.00107138  0.19161764     0.87900
C26         C  0.12768504  0.99663272  0.30861380     0.87800
C27         C  0.12820645  0.09777817  0.25245201     0.87800
C28         C  0.12848807  0.90120107  0.24948891     0.88000
C29         C  0.12478822  0.15730437  0.99420316     0.03200
C30         C  0.08408807  0.18396482  0.99207344    -0.12900
C31         C  0.08334515  0.23495618  0.48583977     0.00700
C32         C  0.12441401  0.26019280  0.48123778    -0.11400
C33         C  0.16532238  0.23523201  0.48696084     0.03200
C34         C  0.16473571  0.18490885  0.99136655    -0.10800
H35         H  0.05356834  0.16326444  0.99672500     0.08800
H36         H  0.12456021  0.29950768  0.47320201     0.06400
H37         H  0.19575219  0.16493304  0.99559323     0.06200
C38         C  0.12782691  0.15476327  0.25601021     0.03200
C39         C  0.16790917  0.18224750  0.25842455    -0.12900
C40         C  0.16820946  0.23549469  0.26502613     0.00700
C41         C  0.12692673  0.26047626  0.26970072    -0.11400
C42         C  0.08609147  0.23501337  0.26420420     0.03200
C43         C  0.08731899  0.18176249  0.25757752    -0.10800
H44         H  0.19877277  0.16178139  0.25445224     0.08800
H45         H  0.12664079  0.30007627  0.27734268     0.06400
H46         H  0.05688770  0.16089096  0.25295650     0.06200
C47         C  0.12618162  0.84667824  0.99699137     0.03200
C48         C  0.08576836  0.81952575  0.99455511    -0.12900
C49         C  0.08319876  0.76447683  0.48717257     0.00700
C50         C  0.12424726  0.73934502  0.48225616    -0.11400
C51         C  0.16516379  0.76431294  0.48794593     0.03200
C52         C  0.16642808  0.81943131  0.99501427    -0.10800
H53         H  0.05491119  0.84012770  0.99839632     0.08800
H54         H  0.12428047  0.69999926  0.47409339     0.06400
H55         H  0.19718807  0.83988536  0.99936238     0.06200
C56         C  0.12831551  0.84423734  0.25234104     0.03200
C57         C  0.16852443  0.81717454  0.25546080    -0.12900
C58         C  0.16892650  0.76443739  0.26300793     0.00700
C59         C  0.12772156  0.73939969  0.26760195    -0.11400
C60         C  0.08691762  0.76432122  0.26150830     0.03200
C61         C  0.08788766  0.81708162  0.25390173    -0.10800
H62         H  0.19943879  0.83761662  0.25174154     0.08800
H63         H  0.12736690  0.70023484  0.27590259     0.06400
H64         H  0.05724737  0.83744814  0.24904728     0.06200
C65         C  0.99890509  0.65471385  0.49549236     0.03200
C66         C  0.20882403  0.68175821  0.49465150    -0.12900
C67         C  0.20820428  0.73479986  0.48792294     0.00700
C68         C  0.99945282  0.75945838  0.47991222    -0.11400
C69         C  0.04019140  0.73478406  0.48649174     0.03200
C70         C  0.03927329  0.68197893  0.49407800    -0.10800
H71         H  0.17805764  0.66122002  0.49873936     0.08800
H72         H  0.99990421  0.79864617  0.47165077     0.06400
H73         H  0.06986095  0.66174317  0.49927094     0.06200
C74         C  0.00237616  0.65465334  0.25327529     0.03200
C75         C  0.04283365  0.68176712  0.25491410    -0.12900
C76         C  0.04373475  0.73494192  0.26173746     0.00700
C77         C  0.00285051  0.76023087  0.26725537    -0.11400
C78         C  0.21200732  0.73504140  0.26410027     0.03200
C79         C  0.21294451  0.68205109  0.25710399    -0.10800
H80         H  0.07350665  0.66116027  0.25041640     0.08800
H81         H  0.00308379  0.79988550  0.27485392     0.06400
H82         H  0.18236237  0.66156590  0.25228039     0.06200
C83         C  0.24940327  0.34460266  0.49633335     0.03200
C84         C  0.03881618  0.31735101  0.49164703    -0.12900
C85         C  0.04012213  0.26424893  0.48475756     0.01500
C86         C  0.24928860  0.23938783  0.48181960    -0.11400
C87         C  0.20835513  0.26460666  0.48709415     0.03200
C88         C  0.20906199  0.31755874  0.49421434    -0.10800
H89         H  0.06922984  0.33798608  0.49675479     0.08800
H90         H  0.24919061  0.20004760  0.47366878     0.06400
H91         H  0.17830458  0.33812155  0.49847096     0.06200
C92         C  0.25210275  0.34497806  0.25373458     0.03200
C93         C  0.21176375  0.31809460  0.25697478    -0.12900
C94         C  0.21120839  0.26530556  0.26459731     0.00700
C95         C  0.25238013  0.24040209  0.26957296    -0.11400
C96         C  0.04273778  0.26432263  0.26312043     0.03200
C97         C  0.04199037  0.31741981  0.25623627    -0.10800
H98         H  0.18094190  0.33864393  0.25309805     0.08800
H99         H  0.25269209  0.20140282  0.27812739     0.06400
H100        H  0.07276042  0.33836512  0.25308102     0.06200
O101        O  0.03508045  0.49976128  0.04282546    -0.74300
O102        O  0.03619703  0.50122651  0.45518522    -0.74300
O103        O  0.03565755  0.57326049  0.49986923    -0.74400
O104        O  0.03512146  0.42572410  0.49774585    -0.74400
O105        O  0.21223538  0.42592961  0.49940319    -0.74400
O106        O  0.21200379  0.57333883  0.49949029    -0.74400
O107        O  0.21351887  0.49964509  0.45562296    -0.74300
O108        O  0.21293525  0.50288000  0.04330053    -0.74400
Ni109      Ni  0.03792739  0.49946909  0.49907366     1.25400
Ni110      Ni  0.20950588  0.49966445  0.49954057     1.25400
C111        C  0.24986294  0.50218184  0.05808923     0.87900
C112        C  0.25111028  0.50008464  0.44158298     0.87800
C113        C  0.99863400  0.59785539  0.49895215     0.87800
C114        C  0.99801706  0.40134822  0.49639717     0.88000
O115        O  0.03870421  0.49911963  0.20509568    -0.74300
O116        O  0.03735047  0.49962383  0.29317845    -0.74300
O117        O  0.03830904  0.42563461  0.24930793    -0.74400
O118        O  0.03886139  0.57303127  0.24938632    -0.74400
O119        O  0.21604089  0.57400365  0.25060201    -0.74400
O120        O  0.21526252  0.42648821  0.24930185    -0.74400
O121        O  0.21491157  0.49951048  0.29352954    -0.74300
O122        O  0.21624878  0.50145728  0.20583422    -0.74400
Ni123      Ni  0.04095246  0.49931931  0.24915824     1.25400
Ni124      Ni  0.21300990  0.50034658  0.24968047     1.25400
C125        C  0.25349260  0.50220029  0.19142245     0.87900
C126        C  0.25167681  0.49873227  0.30842460     0.87800
C127        C  0.00124209  0.40117384  0.24968679     0.87800
C128        C  0.00190657  0.59773754  0.24989301     0.88000
C129        C  0.21336021  0.48591579  0.39149984    -0.26200
C130        C  0.25192707  0.50073804  0.40752788    -0.14300
C131        C  0.03792285  0.51928245  0.38952972     0.36400
C132        C  0.03710293  0.51697065  0.35728071    -0.25600
C133        C  0.25098423  0.49837073  0.34249584    -0.14900
C134        C  0.21242717  0.48426851  0.35925865     0.37400
N135        N  0.17262155  0.46759885  0.34367243    -0.89100
H136        H  0.18385608  0.47454783  0.40418238     0.18600
H137        H  0.06638295  0.52881524  0.34450646     0.18500
N138        N  0.07711830  0.53779612  0.40510591    -0.88200
H139        H  0.14701214  0.46021338  0.35939268     0.35900
H140        H  0.17982498  0.43250150  0.33282846     0.41000
H141        H  0.06867882  0.57250003  0.41598505     0.40600
H142        H  0.10238278  0.54644118  0.38935243     0.35500
C143        C  0.21397338  0.48949373  0.14178605    -0.26200
C144        C  0.25317924  0.50375703  0.15731858    -0.14300
C145        C  0.03897014  0.51483436  0.13894435     0.36400
C146        C  0.03688580  0.51343235  0.10672016    -0.25600
C147        C  0.24988625  0.50245955  0.09222405    -0.14900
C148        C  0.21183847  0.48852891  0.10953972     0.37400
N149        N  0.17135638  0.47264440  0.09451198    -0.89100
H150        H  0.18486931  0.47799532  0.15485788     0.18600
H151        H  0.06577008  0.52553705  0.09361317     0.18500
N152        N  0.07881451  0.53278538  0.15395094    -0.88200
H153        H  0.14627172  0.46516994  0.11062223     0.35900
H154        H  0.17784924  0.43769559  0.08331062     0.41000
H155        H  0.07097820  0.56741000  0.16512169     0.40600
H156        H  0.10355587  0.54152805  0.13782735     0.35500
C157        C  0.08782758  0.01045718  0.35814840    -0.26200
C158        C  0.12684713  0.99521328  0.34267619    -0.14300
C159        C  0.16422126  0.97966073  0.36001489     0.36400
C160        C  0.16228141  0.98086016  0.39220868    -0.25600
C161        C  0.12355215  0.99697932  0.40774141    -0.14900
C162        C  0.08582327  0.01203815  0.39042636     0.37400
N163        N  0.04597183  0.03002056  0.40547206    -0.89100
H164        H  0.05899905  0.02259793  0.34501670     0.18600
H165        H  0.19134668  0.96863494  0.40508540     0.18500
N166        N  0.20400071  0.96169959  0.34514960    -0.88200
H167        H  0.02110878  0.03829126  0.38940602     0.35900
H168        H  0.05370271  0.06491811  0.41641089     0.41000
H169        H  0.21045087  0.92421102  0.35271926     0.40600
H170        H  0.23044446  0.98515685  0.35216278     0.35500
C171        C  0.16743933  0.01691619  0.14157905    -0.26200
C172        C  0.12910969  0.00103982  0.15754279    -0.14300
C173        C  0.09119571  0.98555614  0.14062798     0.36400
C174        C  0.09191733  0.98725322  0.10846655    -0.25600
C175        C  0.12997229  0.00355209  0.09246507    -0.14900
C176        C  0.16818766  0.01847908  0.10930470     0.37400
N177        N  0.20752472  0.03624096  0.09389942    -0.89100
H178        H  0.19685096  0.02900459  0.15415538     0.18600
H179        H  0.06254582  0.97482885  0.09597344     0.18500
N180        N  0.05199756  0.96710815  0.15588046    -0.88200
H181        H  0.23407780  0.01247101  0.10028418     0.35900
H182        H  0.21445982  0.07359454  0.10166634     0.41000
H183        H  0.04533578  0.92982054  0.14790367     0.40600
H184        H  0.02536949  0.99082090  0.14960122     0.35500
O185        O  0.16355734  0.00197805  0.54380436    -0.74300
O186        O  0.16250313  0.00086953  0.95549014    -0.74300
O187        O  0.16204343  0.07377678  0.49896813    -0.74400
O188        O  0.16365629  0.92824031  0.99985643    -0.74400
O189        O  0.08759521  0.92620158  0.50132313    -0.74400
O190        O  0.08877440  0.07565787  0.99972929    -0.74400
O191        O  0.08822787  0.00077831  0.95648612    -0.74300
O192        O  0.08925261  0.00169211  0.54472813    -0.74400
Ni193      Ni  0.16481534  0.99990253  0.49988833     1.25400
Ni194      Ni  0.08675634  0.00190102  0.00055268     1.25400
C195        C  0.12681429  0.00301087  0.55875642     0.87900
C196        C  0.12501533  0.00076585  0.94145238     0.87800
C197        C  0.12480702  0.09814022  0.49877840     0.87800
C198        C  0.12460261  0.90158914  0.50037463     0.88000
O199        O  0.08996686  0.00429165  0.70632758    -0.74300
O200        O  0.08994911  0.00116736  0.79400927    -0.74300
O201        O  0.09050053  0.07658091  0.75140116    -0.74400
O202        O  0.08947762  0.92896869  0.74929786    -0.74400
O203        O  0.16376423  0.92840154  0.74887329    -0.74400
O204        O  0.16477912  0.07609558  0.75140690    -0.74400
O205        O  0.16424117  0.00014615  0.79388952    -0.74300
O206        O  0.16426244  0.00422005  0.70594009    -0.74400
Ni207      Ni  0.08735818  0.00280736  0.75015482     1.25400
Ni208      Ni  0.16693509  0.00220752  0.74992916     1.25400
C209        C  0.12694741  0.00448465  0.69162153     0.87900
C210        C  0.12710001  0.99982954  0.80846297     0.87800
C211        C  0.12774336  0.10077125  0.75231933     0.87800
C212        C  0.12648338  0.90425228  0.74957873     0.88000
C213        C  0.12447579  0.15503995  0.49569200     0.03200
C214        C  0.08406245  0.18199695  0.49300938    -0.12900
C215        C  0.08277715  0.23679201  0.98448497     0.00700
C216        C  0.12350415  0.26215305  0.97870788    -0.11400
C217        C  0.16477593  0.23768506  0.98380184     0.03200
C218        C  0.16466623  0.18238294  0.49415805    -0.10800
H219        H  0.05327417  0.16133677  0.49679011     0.08800
H220        H  0.12316013  0.30132741  0.97042862     0.06400
H221        H  0.19536745  0.16209060  0.49892310     0.06200
C222        C  0.12785989  0.15774776  0.75574782     0.03200
C223        C  0.16814921  0.18505264  0.75735932    -0.12900
C224        C  0.16876965  0.23832972  0.76388430     0.00700
C225        C  0.12783838  0.26344366  0.76937554    -0.11400
C226        C  0.08679939  0.23822400  0.76461627     0.03200
C227        C  0.08754117  0.18497427  0.75800061    -0.10800
H228        H  0.19885388  0.16450319  0.75291173     0.08800
H229        H  0.12797836  0.30301502  0.77708858     0.06400
H230        H  0.05684897  0.16428068  0.75395985     0.06200
C231        C  0.12422618  0.84455841  0.49721414     0.03200
C232        C  0.08379853  0.81753577  0.49440458    -0.12900
C233        C  0.08509902  0.76639955  0.98749975     0.00700
C234        C  0.12617388  0.74120512  0.98264821    -0.11400
C235        C  0.16713132  0.76650176  0.98780599     0.03200
C236        C  0.16446313  0.81718773  0.49538705    -0.10800
H237        H  0.05290598  0.83811913  0.49816181     0.08800
H238        H  0.12624661  0.70168192  0.97478936     0.06400
H239        H  0.19517862  0.83749293  0.50009593     0.06200
C240        C  0.12622773  0.84735208  0.75277757     0.03200
C241        C  0.16647143  0.82024350  0.75551968    -0.12900
C242        C  0.16701390  0.76765465  0.76339818     0.00700
C243        C  0.12599607  0.74269746  0.76858484    -0.11400
C244        C  0.08512941  0.76762486  0.76286025     0.03200
C245        C  0.08584598  0.82031833  0.75509092    -0.10800
H246        H  0.19733208  0.84051106  0.75126195     0.08800
H247        H  0.12582322  0.70354401  0.77694202     0.06400
H248        H  0.05506273  0.84064482  0.75059265     0.06200
C249        C  0.00010062  0.65706608  0.99521792     0.03200
C250        C  0.21154210  0.68468626  0.99458761    -0.12900
C251        C  0.21034995  0.73742082  0.98726281     0.00700
C252        C  0.00133173  0.76197540  0.97991498    -0.11400
C253        C  0.04191091  0.73695757  0.98663371     0.03200
C254        C  0.04063304  0.68409758  0.99406864    -0.10800
H255        H  0.18100750  0.66427530  0.99963980     0.08800
H256        H  0.00203873  0.80121817  0.97176602     0.06400
H257        H  0.07107588  0.66364770  0.99936367     0.06200
C258        C  0.00083015  0.65815345  0.75413226     0.03200
C259        C  0.04122694  0.68531985  0.75580927    -0.12900
C260        C  0.04213537  0.73817052  0.76333436     0.00700
C261        C  0.00142139  0.76324480  0.76945270    -0.11400
C262        C  0.21005246  0.73834495  0.76425107     0.03200
C263        C  0.21105520  0.68538363  0.75718588    -0.10800
H264        H  0.07190644  0.66503608  0.75080477     0.08800
H265        H  0.00176481  0.80270703  0.77744713     0.06400
H266        H  0.18046059  0.66483824  0.75245880     0.06200
C267        C  0.24851896  0.34761975  0.99372760     0.03200
C268        C  0.03865482  0.31932426  0.99103003    -0.12900
C269        C  0.03946982  0.26608725  0.98443521     0.01500
C270        C  0.24860344  0.24273750  0.97804864    -0.11400
C271        C  0.20756361  0.26768811  0.98344978     0.03200
C272        C  0.20812514  0.32066495  0.99088812    -0.10800
H273        H  0.06934926  0.33993963  0.99526800     0.08800
H274        H  0.24876222  0.20343961  0.96978913     0.06400
H275        H  0.17731390  0.34115034  0.99510668     0.06200
C276        C  0.25198947  0.34828230  0.75244586     0.03200
C277        C  0.21185470  0.32091644  0.75519669    -0.12900
C278        C  0.21160607  0.26817920  0.76291824     0.00700
C279        C  0.25279095  0.24359228  0.76800498    -0.11400
C280        C  0.04367688  0.26786672  0.76426349     0.03200
C281        C  0.04297855  0.32091878  0.75715738    -0.10800
H282        H  0.18091957  0.34111848  0.75107645     0.08800
H283        H  0.25319939  0.20454760  0.77650140     0.06400
H284        H  0.07371109  0.34167106  0.75340861     0.06200
O285        O  0.03430815  0.49788331  0.54291667    -0.74300
O286        O  0.03686984  0.50332089  0.95512996    -0.74300
O287        O  0.03652281  0.57535772  0.99979395    -0.74400
O288        O  0.03556383  0.42775082  0.99762767    -0.74400
O289        O  0.21220472  0.42940054  0.99860345    -0.74400
O290        O  0.21448208  0.57683489  0.99951077    -0.74400
O291        O  0.21415001  0.50361420  0.95530855    -0.74300
O292        O  0.21092412  0.50001332  0.54349571    -0.74400
Ni293      Ni  0.03861482  0.50150783  0.99898861     1.25400
Ni294      Ni  0.21080009  0.50322902  0.99928171     1.25400
C295        C  0.24770681  0.50032639  0.55842428     0.87900
C296        C  0.25158417  0.50346999  0.94106938     0.87800
C297        C  0.99958475  0.60014576  0.99876870     0.87800
C298        C  0.99835597  0.40355851  0.99641903     0.88000
O299        O  0.03836976  0.50252969  0.70523880    -0.74300
O300        O  0.03802163  0.50388360  0.79326880    -0.74300
O301        O  0.03908970  0.42945458  0.74975461    -0.74400
O302        O  0.03801309  0.57702001  0.74932216    -0.74400
O303        O  0.21441005  0.57716035  0.75088234    -0.74400
O304        O  0.21447420  0.42951851  0.74895406    -0.74400
O305        O  0.21428744  0.50195506  0.79354215    -0.74300
O306        O  0.21412368  0.50485520  0.70591189    -0.74400
Ni307      Ni  0.04103252  0.50326886  0.74926894     1.25400
Ni308      Ni  0.21169790  0.50337402  0.74972516     1.25400
C309        C  0.25115640  0.50561161  0.69128147     0.87900
C310        C  0.25132143  0.50137127  0.80811849     0.87800
C311        C  0.00215238  0.40470722  0.75044274     0.87800
C312        C  0.00081081  0.60129331  0.75021761     0.88000
C313        C  0.21499646  0.48407393  0.89120662    -0.26200
C314        C  0.25208071  0.50368589  0.90706031    -0.14300
C315        C  0.03745453  0.52501527  0.88975687     0.36400
C316        C  0.03687783  0.52308511  0.85749791    -0.25600
C317        C  0.25111690  0.50061331  0.84212238    -0.14900
C318        C  0.21417074  0.48192475  0.85895838     0.37400
N319        N  0.17626854  0.46005902  0.84339378    -0.89100
H320        H  0.18679228  0.46931865  0.90405053     0.18600
H321        H  0.06511439  0.53803354  0.84476862     0.18500
N322        N  0.07501687  0.54718078  0.90555490    -0.88200
H323        H  0.15172732  0.44907584  0.85916694     0.35900
H324        H  0.18694767  0.42631381  0.83238016     0.41000
H325        H  0.06391153  0.58063721  0.91668629     0.40600
H326        H  0.09953314  0.55871354  0.88990616     0.35500
C327        C  0.21191225  0.48903654  0.64201995    -0.26200
C328        C  0.25045245  0.50627492  0.65727833    -0.14300
C329        C  0.03923685  0.51278931  0.63886078     0.36400
C330        C  0.03695414  0.51020680  0.60666972    -0.25600
C331        C  0.24744145  0.50193152  0.59241131    -0.14900
C332        C  0.21002346  0.48632007  0.60981372     0.37400
N333        N  0.17065198  0.46674228  0.59492093    -0.89100
H334        H  0.18338720  0.47629607  0.65528729     0.18600
H335        H  0.06653802  0.51923067  0.59341848     0.18500
N336        N  0.08031578  0.52755919  0.65351363    -0.88200
H337        H  0.14604192  0.45779179  0.61109504     0.35900
H338        H  0.17926857  0.43201799  0.58414425     0.41000
H339        H  0.07504733  0.56332207  0.66409055     0.40600
H340        H  0.10551516  0.53320259  0.63722780     0.35500
C341        C  0.08926664  0.01772193  0.85819658    -0.26200
C342        C  0.12677324  0.99874619  0.84245106    -0.14300
C343        C  0.16330302  0.97987824  0.85939772     0.36400
C344        C  0.16211699  0.98134722  0.89161013    -0.25600
C345        C  0.12466320  0.00050485  0.90742059    -0.14900
C346        C  0.08789793  0.01926335  0.89047099     0.37400
N347        N  0.04980931  0.04099405  0.90593091    -0.89100
H348        H  0.06126463  0.03270365  0.84526775     0.18600
H349        H  0.19043296  0.96648508  0.90428857     0.18500
N350        N  0.20108073  0.95777633  0.84403436    -0.88200
H351        H  0.02552555  0.05223357  0.89009409     0.35900
H352        H  0.06037848  0.07465270  0.91711570     0.41000
H353        H  0.20534658  0.92026807  0.85193209     0.40600
H354        H  0.22943843  0.97917239  0.85007203     0.35500
C355        C  0.16300319  0.02528798  0.64156479    -0.26200
C356        C  0.12649908  0.00477959  0.65764537    -0.14300
C357        C  0.09006019  0.98470432  0.64097203     0.36400
C358        C  0.09081846  0.98511831  0.60881192    -0.25600
C359        C  0.12742652  0.00497367  0.59269648    -0.14900
C360        C  0.16363084  0.02594672  0.60928428     0.37400
N361        N  0.20044737  0.04922163  0.59355228    -0.89100
H362        H  0.19086942  0.04170722  0.65406910     0.18600
H363        H  0.06284194  0.96876062  0.59640521     0.18500
N364        N  0.05254411  0.96269514  0.65651575    -0.88200
H365        H  0.22955550  0.03006183  0.60007439     0.35900
H366        H  0.20295542  0.08756802  0.60092080     0.41000
H367        H  0.04895914  0.92456898  0.64908620     0.40600
H368        H  0.02416146  0.98313700  0.64982445     0.35500
O369        O  0.41200158  0.00503538  0.04377104    -0.74300
O370        O  0.41094498  0.99842806  0.45549823    -0.74300
O371        O  0.41093082  0.07766047  0.99934140    -0.74400
O372        O  0.41148841  0.92529179  0.49945528    -0.74400
O373        O  0.33809338  0.92914173  0.00019759    -0.74400
O374        O  0.33670424  0.07271807  0.49924656    -0.74400
O375        O  0.33668689  0.99793332  0.45581876    -0.74300
O376        O  0.33767282  0.00393825  0.04410023    -0.74400
Ni377      Ni  0.41431217  0.00395880  0.99982103     1.25400
Ni378      Ni  0.33421854  0.99884403  0.49972113     1.25400
C379        C  0.37495925  0.00530697  0.05842315     0.87900
C380        C  0.37367640  0.99815431  0.44111378     0.87800
C381        C  0.37358808  0.10166799  0.99862784     0.87800
C382        C  0.37542562  0.90510375  0.99910619     0.88000
O383        O  0.33892254  0.99982970  0.20600478    -0.74300
O384        O  0.33987364  0.99852295  0.29364153    -0.74300
O385        O  0.33938599  0.07317243  0.25046038    -0.74400
O386        O  0.34012352  0.92522679  0.24965440    -0.74400
O387        O  0.41439097  0.92562890  0.24876353    -0.74400
O388        O  0.41366536  0.07323432  0.25041337    -0.74400
O389        O  0.41414222  0.99803103  0.29337624    -0.74300
O390        O  0.41322863  0.00107669  0.20530224    -0.74400
Ni391      Ni  0.33694568  0.99917016  0.24983819     1.25400
Ni392      Ni  0.41651112  0.99950079  0.24933712     1.25400
C393        C  0.37573842  0.00094999  0.19115634     0.87900
C394        C  0.37706337  0.99760983  0.30804630     0.87800
C395        C  0.37653157  0.09765359  0.25116897     0.87800
C396        C  0.37743163  0.90098095  0.25005621     0.88000
C397        C  0.37328862  0.15847673  0.99494592     0.03200
C398        C  0.33296373  0.18532842  0.99180154    -0.12900
C399        C  0.33324976  0.23456777  0.48718309     0.00700
C400        C  0.37433856  0.25950870  0.48216078    -0.11400
C401        C  0.41522118  0.23424368  0.48742187     0.03200
C402        C  0.41355817  0.18578753  0.99318359    -0.10800
H403        H  0.30210883  0.16483740  0.99569503     0.08800
H404        H  0.37449558  0.29888003  0.47424516     0.06400
H405        H  0.44423785  0.16563970  0.99821690     0.06200
C406        C  0.37673240  0.15466602  0.25428398     0.03200
C407        C  0.41721247  0.18163123  0.25619710    -0.12900
C408        C  0.41820542  0.23481704  0.26285880     0.00700
C409        C  0.37735258  0.26042065  0.26782586    -0.11400
C410        C  0.33620351  0.23538319  0.26305739     0.03200
C411        C  0.33656959  0.18217634  0.25638377    -0.10800
H412        H  0.44788965  0.16083978  0.25206279     0.08800
H413        H  0.37758695  0.30011071  0.27536340     0.06400
H414        H  0.30567715  0.16178992  0.25239258     0.06200
C415        C  0.37577833  0.84817750  0.99517197     0.03200
C416        C  0.33556778  0.82076590  0.99290224    -0.12900
C417        C  0.33333367  0.76375744  0.48754216     0.00700
C418        C  0.37406800  0.73861652  0.48134777    -0.11400
C419        C  0.41529150  0.76374625  0.48557895     0.03200
C420        C  0.41620611  0.82128399  0.99230432    -0.10800
H421        H  0.30475833  0.84090543  0.99766110     0.08800
H422        H  0.37370121  0.69921286  0.47329627     0.06400
H423        H  0.44694445  0.84182112  0.99656451     0.06200
C424        C  0.37782945  0.84411447  0.25405109     0.03200
C425        C  0.41825058  0.81704422  0.25677526    -0.12900
C426        C  0.41892246  0.76435099  0.26478354     0.00700
C427        C  0.37795083  0.73971459  0.27060749    -0.11400
C428        C  0.33696428  0.76456658  0.26499031     0.03200
C429        C  0.33758292  0.81705446  0.25685458    -0.10800
H430        H  0.44905209  0.83728709  0.25226309     0.08800
H431        H  0.37799441  0.70072923  0.27921941     0.06400
H432        H  0.30677561  0.83722277  0.25223948     0.06200
C433        C  0.24912568  0.65457773  0.49668114     0.03200
C434        C  0.45934400  0.68135665  0.49203076    -0.12900
C435        C  0.45834668  0.73415987  0.48457525     0.00700
C436        C  0.24923168  0.75986918  0.48286941    -0.11400
C437        C  0.29018887  0.73458305  0.48789393     0.03200
C438        C  0.28945824  0.68163708  0.49477893    -0.10800
H439        H  0.42879917  0.66107236  0.49721968     0.08800
H440        H  0.24929391  0.79932018  0.47506783     0.06400
H441        H  0.32020753  0.66106946  0.49894127     0.06200
C442        C  0.25329385  0.65491030  0.25548888     0.03200
C443        C  0.29352826  0.68196712  0.25825846    -0.12900
C444        C  0.29398156  0.73502138  0.26519873     0.00700
C445        C  0.25283544  0.76020130  0.26990124    -0.11400
C446        C  0.46185118  0.73439579  0.26508528     0.03200
C447        C  0.46241330  0.68122164  0.25809935    -0.10800
H448        H  0.32437760  0.66141062  0.25433930     0.08800
H449        H  0.25262853  0.79975753  0.27768854     0.06400
H450        H  0.43158789  0.66085806  0.25381612     0.06200
C451        C  0.49966722  0.34373950  0.49629201     0.03200
C452        C  0.28969201  0.31732440  0.49429902    -0.12900
C453        C  0.29029912  0.26429885  0.48718049     0.01500
C454        C  0.49927222  0.23818761  0.48219036    -0.11400
C455        C  0.45838755  0.26355199  0.48745238     0.03200
C456        C  0.45927203  0.31665285  0.49441232    -0.10800
H457        H  0.32043426  0.33779930  0.49862228     0.08800
H458        H  0.49921747  0.19867576  0.47433639     0.06400
H459        H  0.42861723  0.33733725  0.49878191     0.06200
C460        C  0.50333097  0.34332559  0.25306665     0.03200
C461        C  0.46278063  0.31653297  0.25502577    -0.12900
C462        C  0.46150310  0.26389436  0.26288845     0.00700
C463        C  0.50213276  0.23864181  0.26903645    -0.11400
C464        C  0.29321838  0.26507124  0.26328271     0.03200
C465        C  0.29241400  0.31769705  0.25547437    -0.10800
H466        H  0.43225979  0.33703922  0.25005244     0.08800
H467        H  0.50161946  0.19953305  0.27742994     0.06400
H468        H  0.32308326  0.33782547  0.25040539     0.06200
O469        O  0.28715399  0.50165761  0.04371204    -0.74300
O470        O  0.28775348  0.49957116  0.45663656    -0.74300
O471        O  0.28628974  0.57338480  0.50040306    -0.74400
O472        O  0.28651358  0.42589076  0.50032479    -0.74400
O473        O  0.46261192  0.42535060  0.49906946    -0.74400
O474        O  0.46264432  0.57296441  0.49792981    -0.74400
O475        O  0.46466325  0.49811788  0.45480951    -0.74300
O476        O  0.46206237  0.50471946  0.04272679    -0.74400
Ni477      Ni  0.28906709  0.49966727  0.50053575     1.25400
Ni478      Ni  0.46001773  0.49919914  0.49866861     1.25400
C479        C  0.49893914  0.50428598  0.05758737     0.87900
C480        C  0.50241980  0.49781685  0.44098480     0.87800
C481        C  0.24912869  0.59773740  0.49943864     0.87800
C482        C  0.24939039  0.40150658  0.49929623     0.88000
O483        O  0.29048654  0.50112170  0.20614030    -0.74300
O484        O  0.28914304  0.49880643  0.29420570    -0.74300
O485        O  0.28953989  0.42604861  0.24967190    -0.74400
O486        O  0.29032561  0.57358830  0.25119251    -0.74400
O487        O  0.46585585  0.57244119  0.25067441    -0.74400
O488        O  0.46648590  0.42475358  0.24843356    -0.74400
O489        O  0.46592138  0.49688570  0.29306576    -0.74300
O490        O  0.46649139  0.50054080  0.20541492    -0.74400
Ni491      Ni  0.29255286  0.49983482  0.25020398     1.25400
Ni492      Ni  0.46359903  0.49860531  0.24925859     1.25400
C493        C  0.50362088  0.50172526  0.19087497     0.87900
C494        C  0.50280066  0.49599785  0.30782051     0.87800
C495        C  0.25229239  0.40184449  0.25018906     0.87800
C496        C  0.25325802  0.59815572  0.25182188     0.88000
C497        C  0.46449571  0.48419763  0.39093603    -0.26200
C498        C  0.50356542  0.49730620  0.40692267    -0.14300
C499        C  0.29033810  0.51540052  0.39078832     0.36400
C500        C  0.28950487  0.51347598  0.35851941    -0.25600
C501        C  0.50239661  0.49473040  0.34188764    -0.14900
C502        C  0.46341583  0.48249072  0.35871341     0.37400
N503        N  0.42290907  0.46795753  0.34322303    -0.89100
H504        H  0.43455314  0.47453550  0.40363482     0.18600
H505        H  0.31895023  0.52496570  0.34581113     0.18500
N506        N  0.32977793  0.53307882  0.40642347    -0.88200
H507        H  0.39709875  0.46194054  0.35899068     0.35900
H508        H  0.42865432  0.43249655  0.33238111     0.41000
H509        H  0.32184874  0.56794461  0.41730318     0.40600
H510        H  0.35520852  0.54125676  0.39071074     0.35500
C511        C  0.46337303  0.49122920  0.14132043    -0.26200
C512        C  0.50304327  0.50400645  0.15677801    -0.14300
C513        C  0.29086886  0.51899109  0.14004128     0.36400
C514        C  0.28892081  0.51748553  0.10775838    -0.25600
C515        C  0.49901383  0.50441359  0.09170610    -0.14900
C516        C  0.46094033  0.49084012  0.10908014     0.37400
N517        N  0.42020983  0.47562388  0.09412645    -0.89100
H518        H  0.43416346  0.48023099  0.15443188     0.18600
H519        H  0.31796200  0.52909802  0.09465434     0.18500
N520        N  0.33066668  0.53683512  0.15515840    -0.88200
H521        H  0.39519495  0.46822693  0.11029422     0.35900
H522        H  0.42632249  0.44070145  0.08277896     0.41000
H523        H  0.32276033  0.57129153  0.16648263     0.40600
H524        H  0.35539632  0.54585073  0.13906757     0.35500
C525        C  0.33788224  0.01242606  0.35764570    -0.26200
C526        C  0.37665609  0.99663518  0.34207531    -0.14300
C527        C  0.41397973  0.98054297  0.35927381     0.36400
C528        C  0.41216957  0.98148165  0.39146532    -0.25600
C529        C  0.37362395  0.99787556  0.40707137    -0.14900
C530        C  0.33599202  0.01368882  0.38990037     0.37400
N531        N  0.29634945  0.03201178  0.40508628    -0.89100
H532        H  0.30913801  0.02509337  0.34460961     0.18600
H533        H  0.44111958  0.96873546  0.40428361     0.18500
N534        N  0.45353578  0.96223303  0.34427959    -0.88200
H535        H  0.27165689  0.04121339  0.38911741     0.35900
H536        H  0.30453376  0.06649492  0.41636435     0.41000
H537        H  0.45955267  0.92454037  0.35163422     0.40600
H538        H  0.48027368  0.98519980  0.35143148     0.35500
C539        C  0.40980478  0.02688610  0.14142114    -0.26200
C540        C  0.37486135  0.00256894  0.15722300    -0.14300
C541        C  0.33935705  0.98071414  0.14035308     0.36400
C542        C  0.33971476  0.98291304  0.10817972    -0.25600
C543        C  0.37505639  0.00627538  0.09235516    -0.14900
C544        C  0.41000981  0.02930689  0.10919543     0.37400
N545        N  0.44511936  0.05633024  0.09375459    -0.89100
H546        H  0.43675281  0.04486052  0.15412992     0.18600
H547        H  0.31266291  0.96503771  0.09551998     0.18500
N548        N  0.30352610  0.95479724  0.15568570    -0.88200
H549        H  0.47540313  0.03929144  0.09984143     0.35900
H550        H  0.44533158  0.09440731  0.10178753     0.41000
H551        H  0.30243445  0.91679139  0.14765924     0.40600
H552        H  0.27365569  0.97284342  0.14951885     0.35500
O553        O  0.41111845  0.99974739  0.54332665    -0.74300
O554        O  0.41139615  0.00333186  0.95589833    -0.74300
O555        O  0.41098900  0.07277081  0.49915759    -0.74400
O556        O  0.41236037  0.92997176  0.99980267    -0.74400
O557        O  0.33720436  0.92503748  0.49989767    -0.74400
O558        O  0.33664974  0.07687254  0.99959478    -0.74400
O559        O  0.33723815  0.00212584  0.95628649    -0.74300
O560        O  0.33688174  0.99983776  0.54360389    -0.74400
Ni561      Ni  0.41377542  0.99904317  0.49943902     1.25400
Ni562      Ni  0.33476922  0.00295911  0.00017761     1.25400
C563        C  0.37409157  0.00054326  0.55800556     0.87900
C564        C  0.37415256  0.00292977  0.94149515     0.87800
C565        C  0.37383947  0.09717118  0.49868414     0.87800
C566        C  0.37444202  0.90074940  0.49909185     0.88000
O567        O  0.33673571  0.00354290  0.70625723    -0.74300
O568        O  0.33975386  0.00434239  0.79391735    -0.74300
O569        O  0.33925308  0.07788541  0.75012026    -0.74400
O570        O  0.33792008  0.93007172  0.75043503    -0.74400
O571        O  0.41218152  0.92961141  0.74920626    -0.74400
O572        O  0.41351524  0.07704342  0.74913553    -0.74400
O573        O  0.41393258  0.00344378  0.79299410    -0.74300
O574        O  0.41096006  0.00304673  0.70503405    -0.74400
Ni575      Ni  0.33577237  0.00402052  0.75012831     1.25400
Ni576      Ni  0.41528608  0.00326188  0.74894248     1.25400
C577        C  0.37329263  0.00305140  0.69110412     0.87900
C578        C  0.37719327  0.00377002  0.80805123     0.87800
C579        C  0.37664392  0.10190303  0.75019977     0.87800
C580        C  0.37501531  0.90544364  0.75066821     0.88000
C581        C  0.37393604  0.15413524  0.49597143     0.03200
C582        C  0.33372317  0.18148263  0.49394231    -0.12900
C583        C  0.33243804  0.23811081  0.98427566     0.00700
C584        C  0.37350478  0.26323306  0.97941240    -0.11400
C585        C  0.41434714  0.23847079  0.98547540     0.03200
C586        C  0.41432886  0.18120522  0.49425635    -0.10800
H587        H  0.30292620  0.16101134  0.49802358     0.08800
H588        H  0.37367272  0.30244143  0.97116520     0.06400
H589        H  0.44496088  0.16053765  0.49860069     0.06200
C590        C  0.37722333  0.15888916  0.75312254     0.03200
C591        C  0.41768293  0.18588556  0.75535943    -0.12900
C592        C  0.41841360  0.23912888  0.76209356     0.00700
C593        C  0.37743683  0.26437659  0.76719388    -0.11400
C594        C  0.33650636  0.23931791  0.76194548     0.03200
C595        C  0.33706976  0.18634108  0.75490498    -0.10800
H596        H  0.44840947  0.16510529  0.75140732     0.08800
H597        H  0.37733791  0.30387185  0.77508537     0.06400
H598        H  0.30626945  0.16603419  0.75045414     0.06200
C599        C  0.37461052  0.84383489  0.49601043     0.03200
C600        C  0.33430466  0.81660329  0.49490880    -0.12900
C601        C  0.33506028  0.76792882  0.98520468     0.00700
C602        C  0.37605153  0.74330230  0.97928262    -0.11400
C603        C  0.41697901  0.76841563  0.98463140     0.03200
C604        C  0.41488610  0.81679553  0.49267775    -0.10800
H605        H  0.30374350  0.83699272  0.50006115     0.08800
H606        H  0.37610523  0.70410523  0.97086465     0.06400
H607        H  0.44581364  0.83741909  0.49602185     0.06200
C608        C  0.37520897  0.84867502  0.75453412     0.03200
C609        C  0.41570359  0.82190648  0.75724060    -0.12900
C610        C  0.41663163  0.76935128  0.76520605     0.00700
C611        C  0.37576770  0.74430185  0.77086213    -0.11400
C612        C  0.33469046  0.76876761  0.76506108     0.03200
C613        C  0.33504739  0.82137017  0.75707602    -0.10800
H614        H  0.44643341  0.84230001  0.75274904     0.08800
H615        H  0.37593093  0.70529438  0.77944050     0.06400
H616        H  0.30419625  0.84141139  0.75238615     0.06200
C617        C  0.25198681  0.65765601  0.99589094     0.03200
C618        C  0.46065019  0.68579157  0.99153399    -0.12900
C619        C  0.45999539  0.73876933  0.98443081     0.00700
C620        C  0.25097952  0.76267733  0.98115276    -0.11400
C621        C  0.29227837  0.73789618  0.98566165     0.03200
C622        C  0.29214343  0.68486258  0.99272407    -0.10800
H623        H  0.42986718  0.66544295  0.99589695     0.08800
H624        H  0.25047486  0.80199435  0.97310832     0.06400
H625        H  0.32312310  0.66442205  0.99624604     0.06200
C626        C  0.25147470  0.65839899  0.75544743     0.03200
C627        C  0.29166747  0.68571203  0.75812970    -0.12900
C628        C  0.29193010  0.73879640  0.76514131     0.00700
C629        C  0.25075496  0.76367951  0.76999221    -0.11400
C630        C  0.45972495  0.73990327  0.76532859     0.03200
C631        C  0.46026071  0.68693290  0.75813680    -0.10800
H632        H  0.32261599  0.66536016  0.75417870     0.08800
H633        H  0.25039506  0.80319612  0.77786554     0.06400
H634        H  0.42944781  0.66658295  0.75380268     0.06200
C635        C  0.49854545  0.34799537  0.99525064     0.03200
C636        C  0.28875309  0.32036158  0.99152321    -0.12900
C637        C  0.28946922  0.26764505  0.98382591     0.01500
C638        C  0.49835675  0.24261350  0.98070051    -0.11400
C639        C  0.45738659  0.26797368  0.98565959     0.03200
C640        C  0.45810711  0.32107654  0.99268140    -0.10800
H641        H  0.31949272  0.34053512  0.99635857     0.08800
H642        H  0.49833288  0.20313473  0.97277279     0.06400
H643        H  0.42732152  0.34177198  0.99661427     0.06200
C644        C  0.50186227  0.34926784  0.75243598     0.03200
C645        C  0.46176618  0.32174298  0.75453524    -0.12900
C646        C  0.46136432  0.26887125  0.76187968     0.00700
C647        C  0.50245739  0.24417909  0.76724531    -0.11400
C648        C  0.29348526  0.26870571  0.76201928     0.03200
C649        C  0.29248372  0.32141177  0.75441915    -0.10800
H650        H  0.43093945  0.34194526  0.75006781     0.08800
H651        H  0.50260450  0.20494158  0.77540478     0.06400
H652        H  0.32311782  0.34189750  0.74975833     0.06200
O653        O  0.28518708  0.49999157  0.54431432    -0.74300
O654        O  0.28843749  0.50254762  0.95587934    -0.74300
O655        O  0.28876231  0.57593349  0.99994925    -0.74400
O656        O  0.28647722  0.42821866  0.99905718    -0.74400
O657        O  0.46208360  0.42988589  0.99888831    -0.74400
O658        O  0.46347447  0.57750161  0.99804087    -0.74400
O659        O  0.46404341  0.50276206  0.95475116    -0.74300
O660        O  0.46074101  0.50050222  0.54266659    -0.74400
Ni661      Ni  0.29034806  0.50199762  0.99978730     1.25400
Ni662      Ni  0.46026061  0.50375275  0.99868711     1.25400
C663        C  0.49728371  0.50104453  0.55787161     0.87900
C664        C  0.50160670  0.50241750  0.94067076     0.87800
C665        C  0.25183208  0.60078985  0.99909708     0.87800
C666        C  0.24903796  0.40441317  0.99781125     0.88000
O667        O  0.28839437  0.50497381  0.70569353    -0.74300
O668        O  0.28857831  0.50212916  0.79365702    -0.74300
O669        O  0.28876248  0.42975315  0.74887562    -0.74400
O670        O  0.28870143  0.57724519  0.75081041    -0.74400
O671        O  0.46313084  0.57834759  0.75086725    -0.74400
O672        O  0.46392902  0.43042270  0.74885974    -0.74400
O673        O  0.46365043  0.50287692  0.79340538    -0.74300
O674        O  0.46273102  0.50592519  0.70571950    -0.74400
Ni675      Ni  0.29127548  0.50351789  0.74965343     1.25400
Ni676      Ni  0.46070447  0.50438858  0.74961157     1.25400
C677        C  0.49970041  0.50673015  0.69099526     0.87900
C678        C  0.50079858  0.50216442  0.80783793     0.87800
C679        C  0.25170147  0.40520479  0.74939108     0.87800
C680        C  0.25154868  0.60158564  0.75177929     0.88000
C681        C  0.46501744  0.48334023  0.89084500    -0.26200
C682        C  0.50238254  0.50218782  0.90669617    -0.14300
C683        C  0.28902191  0.52237251  0.89023274     0.36400
C684        C  0.28824409  0.52013269  0.85797537    -0.25600
C685        C  0.50090410  0.50052239  0.84179990    -0.14900
C686        C  0.46392720  0.48188144  0.85861399     0.37400
N687        N  0.42567558  0.46086105  0.84304217    -0.89100
H688        H  0.43668974  0.46885517  0.90367049     0.18600
H689        H  0.31642817  0.53493885  0.84513172     0.18500
N690        N  0.32676574  0.54454848  0.90581455    -0.88200
H691        H  0.40115512  0.44985038  0.85882679     0.35900
H692        H  0.43592700  0.42721859  0.83172843     0.41000
H693        H  0.31588384  0.57827479  0.91675228     0.40600
H694        H  0.35128219  0.55563661  0.89004629     0.35500
C695        C  0.46007606  0.49203025  0.64148977    -0.26200
C696        C  0.49906821  0.50743271  0.65692387    -0.14300
C697        C  0.28752831  0.52280237  0.63985118     0.36400
C698        C  0.28568339  0.51998513  0.60766812    -0.25600
C699        C  0.49655817  0.50289414  0.59193508    -0.14900
C700        C  0.45839603  0.48928884  0.60923522     0.37400
N701        N  0.41839312  0.47183091  0.59421347    -0.89100
H702        H  0.43097432  0.48079129  0.65464771     0.18600
H703        H  0.31419844  0.53278752  0.59440859     0.18500
N704        N  0.32665078  0.54305147  0.65472801    -0.88200
H705        H  0.39315473  0.46480326  0.61028569     0.35900
H706        H  0.42555960  0.43642044  0.58374316     0.41000
H707        H  0.31754755  0.57753635  0.66558860     0.40600
H708        H  0.35112143  0.55248432  0.63853943     0.35500
C709        C  0.33658674  0.00921766  0.85786678    -0.26200
C710        C  0.37733559  0.00355245  0.84219738    -0.14300
C711        C  0.41689347  0.99804987  0.85946646     0.36400
C712        C  0.41487259  0.99788831  0.89166530    -0.25600
C713        C  0.37412801  0.00349449  0.90735343    -0.14900
C714        C  0.33448617  0.00992859  0.89011946     0.37400
N715        N  0.29233477  0.01801181  0.90523068    -0.89100
H716        H  0.30605031  0.01411071  0.84491744     0.18600
H717        H  0.44567245  0.99323829  0.90439386     0.18500
N718        N  0.45929386  0.99242418  0.84460470    -0.88200
H719        H  0.26647371  0.02101884  0.88915837     0.35900
H720        H  0.29381117  0.05372426  0.91630310     0.41000
H721        H  0.47355713  0.95779059  0.85181721     0.40600
H722        H  0.47988396  0.02260989  0.85197254     0.35500
C723        C  0.41134300  0.01576061  0.64104592    -0.26200
C724        C  0.37234724  0.00279094  0.65707489    -0.14300
C725        C  0.33362383  0.98975828  0.64026460     0.36400
C726        C  0.33482134  0.98977047  0.60802728    -0.25600
C727        C  0.37406676  0.00219199  0.59203264    -0.14900
C728        C  0.41252368  0.01576872  0.60887719     0.37400
N729        N  0.45293389  0.02990805  0.59354097    -0.89100
H730        H  0.44122268  0.02648172  0.65350469     0.18600
H731        H  0.30495197  0.97907880  0.59552401     0.18500
N732        N  0.29325490  0.97540109  0.65566277    -0.88200
H733        H  0.47757495  0.00396820  0.60032862     0.35900
H734        H  0.46215825  0.06678653  0.60100867     0.41000
H735        H  0.28442691  0.93830759  0.64836505     0.40600
H736        H  0.26811406  0.00074998  0.64881204     0.35500
O737        O  0.66211270  0.00242293  0.04309699    -0.74300
O738        O  0.66261315  0.00024178  0.45544997    -0.74300
O739        O  0.66129770  0.07715859  0.99987836    -0.74400
O740        O  0.66213129  0.92436682  0.49762149    -0.74400
O741        O  0.58866449  0.92883309  0.99841300    -0.74400
O742        O  0.58757412  0.07201718  0.50023821    -0.74400
O743        O  0.58831224  0.00029608  0.45518727    -0.74300
O744        O  0.58794537  0.00166058  0.04340069    -0.74400
Ni745      Ni  0.66484481  0.00336813  0.99931927     1.25400
Ni746      Ni  0.58520158  0.99823688  0.49915483     1.25400
C747        C  0.62519395  0.00199695  0.05783757     0.87900
C748        C  0.62562892  0.00113927  0.44081954     0.87800
C749        C  0.62390846  0.10116909  0.99943600     0.87800
C750        C  0.62596579  0.90473189  0.99741499     0.88000
O751        O  0.58843831  0.99751695  0.20645651    -0.74300
O752        O  0.59162431  0.99784857  0.29408848    -0.74300
O753        O  0.58983438  0.07138939  0.25061165    -0.74400
O754        O  0.59048322  0.92379776  0.25049076    -0.74400
O755        O  0.66474747  0.92397783  0.24924061    -0.74400
O756        O  0.66410188  0.07159456  0.24949843    -0.74400
O757        O  0.66591816  0.99783038  0.29305952    -0.74300
O758        O  0.66260164  0.99785231  0.20515446    -0.74400
Ni759      Ni  0.58747737  0.99756890  0.25034018     1.25400
Ni760      Ni  0.66701185  0.99779142  0.24906027     1.25400
C761        C  0.62492945  0.99799576  0.19122388     0.87900
C762        C  0.62916749  0.99809191  0.30807548     0.87800
C763        C  0.62692388  0.09590683  0.25091551     0.87800
C764        C  0.62771311  0.89949992  0.25072453     0.88000
C765        C  0.62341683  0.15806494  0.99644371     0.03200
C766        C  0.58299946  0.18494916  0.99370555    -0.12900
C767        C  0.58325910  0.23337409  0.48691600     0.00700
C768        C  0.62405409  0.25802024  0.48058760    -0.11400
C769        C  0.66516997  0.23307881  0.48553694     0.03200
C770        C  0.66360206  0.18540947  0.99467986    -0.10800
H771        H  0.55222884  0.16432476  0.99763142     0.08800
H772        H  0.62378475  0.29702170  0.47201041     0.06400
H773        H  0.69432012  0.16520512  0.99950454     0.06200
C774        C  0.62690384  0.15277900  0.25462645     0.03200
C775        C  0.66724503  0.17992252  0.25644719    -0.12900
C776        C  0.66806907  0.23286379  0.26379382     0.00700
C777        C  0.62726077  0.25781292  0.26987073    -0.11400
C778        C  0.58618691  0.23299907  0.26464363     0.03200
C779        C  0.58663763  0.17998310  0.25739321    -0.10800
H780        H  0.69785332  0.15949152  0.25153211     0.08800
H781        H  0.62742118  0.29710852  0.27810924     0.06400
H782        H  0.55579390  0.15959912  0.25324728     0.06200
C783        C  0.62616239  0.84788541  0.99348218     0.03200
C784        C  0.58582708  0.82065386  0.99185092    -0.12900
C785        C  0.58338114  0.76347687  0.48201645     0.00700
C786        C  0.62424999  0.73825258  0.47638068    -0.11400
C787        C  0.66533498  0.76305421  0.48168676     0.03200
C788        C  0.66644077  0.82086921  0.99007137    -0.10800
H789        H  0.55518626  0.84083778  0.99708302     0.08800
H790        H  0.62414100  0.69884163  0.46831771     0.06400
H791        H  0.69737146  0.84129599  0.99384302     0.06200
C792        C  0.62789311  0.84274731  0.25456164     0.03200
C793        C  0.66821235  0.81566018  0.25693691    -0.12900
C794        C  0.66889074  0.76294413  0.26463594     0.00700
C795        C  0.62793446  0.73814593  0.27041239    -0.11400
C796        C  0.58693122  0.76316672  0.26507978     0.03200
C797        C  0.58761556  0.81578106  0.25729145    -0.10800
H798        H  0.69893418  0.83595594  0.25228653     0.08800
H799        H  0.62797868  0.69899502  0.27875003     0.06400
H800        H  0.55685600  0.83613173  0.25283367     0.06200
C801        C  0.49972202  0.65417003  0.49358761     0.03200
C802        C  0.70862454  0.68056843  0.49003467    -0.12900
C803        C  0.70818296  0.73316508  0.48200974     0.00700
C804        C  0.49910464  0.75903685  0.47823167    -0.11400
C805        C  0.54032085  0.73396623  0.48272360     0.03200
C806        C  0.53992641  0.68115445  0.49022339    -0.10800
H807        H  0.67770940  0.66042590  0.49433168     0.08800
H808        H  0.49876818  0.79829706  0.47009417     0.06400
H809        H  0.57082916  0.66069193  0.49398316     0.06200
C810        C  0.50273457  0.65385226  0.25584448     0.03200
C811        C  0.54306330  0.68087300  0.25823581    -0.12900
C812        C  0.54382291  0.73386370  0.26534242     0.00700
C813        C  0.50287295  0.75928605  0.27038885    -0.11400
C814        C  0.71185441  0.73328508  0.26440757     0.03200
C815        C  0.71236205  0.68032843  0.25717461    -0.10800
H816        H  0.57381341  0.66032350  0.25394098     0.08800
H817        H  0.50287517  0.79885274  0.27816703     0.06400
H818        H  0.68146910  0.65994096  0.25320546     0.06200
C819        C  0.74909460  0.34302189  0.49308647     0.03200
C820        C  0.53990767  0.31635026  0.49395862    -0.12900
C821        C  0.54033714  0.26317571  0.48712439     0.01500
C822        C  0.74905391  0.23746100  0.47892235    -0.11400
C823        C  0.70815077  0.26260455  0.48455671     0.03200
C824        C  0.70885404  0.31570891  0.49140651    -0.10800
H825        H  0.57080315  0.33678734  0.49784875     0.08800
H826        H  0.74891370  0.19783012  0.47127852     0.06400
H827        H  0.67817093  0.33614011  0.49611159     0.06200
C828        C  0.75090075  0.34278873  0.25139356     0.03200
C829        C  0.71086391  0.31566725  0.25531578    -0.12900
C830        C  0.71087435  0.26270549  0.26253491     0.00700
C831        C  0.75224328  0.23780759  0.26637330    -0.11400
C832        C  0.54343901  0.26313573  0.26411594     0.03200
C833        C  0.54338503  0.31592310  0.25639915    -0.10800
H834        H  0.67982109  0.33618419  0.25228949     0.08800
H835        H  0.75301562  0.19857181  0.27454584     0.06400
H836        H  0.57440376  0.33603952  0.25246544     0.06200
O837        O  0.53627700  0.50377357  0.04329606    -0.74300
O838        O  0.53885935  0.49764575  0.45626852    -0.74300
O839        O  0.53690144  0.57297739  0.49913295    -0.74400
O840        O  0.53685134  0.42517137  0.50058637    -0.74400
O841        O  0.71169092  0.42435687  0.49731177    -0.74400
O842        O  0.71154121  0.57221893  0.49795445    -0.74400
O843        O  0.71296564  0.49870744  0.45398740    -0.74300
O844        O  0.71057893  0.50389109  0.04190316    -0.74400
Ni845      Ni  0.53952299  0.49908048  0.50016404     1.25400
Ni846      Ni  0.70894044  0.49827607  0.49791359     1.25400
C847        C  0.74729378  0.50336641  0.05691658     0.87900
C848        C  0.75057053  0.49896896  0.43995266     0.87800
C849        C  0.49977824  0.59737298  0.49754025     0.87800
C850        C  0.49971911  0.40079185  0.49927320     0.88000
O851        O  0.54071056  0.50057829  0.20546659    -0.74300
O852        O  0.54013536  0.49684255  0.29346648    -0.74300
O853        O  0.54075155  0.42469262  0.24868953    -0.74400
O854        O  0.54012354  0.57259004  0.25090306    -0.74400
O855        O  0.71493244  0.57220825  0.24942380    -0.74400
O856        O  0.71373398  0.42439368  0.24783694    -0.74400
O857        O  0.71408836  0.49729906  0.29214506    -0.74300
O858        O  0.71405926  0.49959366  0.20455547    -0.74400
Ni859      Ni  0.54311554  0.49868529  0.24950267     1.25400
Ni860      Ni  0.71158022  0.49837902  0.24838066     1.25400
C861        C  0.75113507  0.50025820  0.18997634     0.87900
C862        C  0.75099026  0.49615321  0.30684184     0.87800
C863        C  0.50359948  0.40025514  0.24930987     0.87800
C864        C  0.50290137  0.59694708  0.25187367     0.88000
C865        C  0.71251220  0.48548260  0.38993821    -0.26200
C866        C  0.75147738  0.49905476  0.40589438    -0.14300
C867        C  0.54258323  0.50948588  0.39012719     0.36400
C868        C  0.54160499  0.50743256  0.35786610    -0.25600
C869        C  0.75052920  0.49556181  0.34089476    -0.14900
C870        C  0.71160287  0.48311051  0.35772583     0.37400
N871        N  0.67144109  0.46731355  0.34224249    -0.89100
H872        H  0.68265409  0.47558346  0.40266192     0.18600
H873        H  0.57148420  0.51721820  0.34513451     0.18500
N874        N  0.58277069  0.52501217  0.40566668    -0.88200
H875        H  0.64578354  0.46058319  0.35801695     0.35900
H876        H  0.67795618  0.43193803  0.33151311     0.41000
H877        H  0.57638449  0.56042223  0.41639578     0.40600
H878        H  0.60845401  0.53166593  0.38990016     0.35500
C879        C  0.71138437  0.48778024  0.14037283    -0.26200
C880        C  0.75056732  0.50211664  0.15594378    -0.14300
C881        C  0.54093833  0.51832828  0.13941882     0.36400
C882        C  0.53849582  0.51800415  0.10716327    -0.25600
C883        C  0.74702163  0.50283343  0.09096692    -0.14900
C884        C  0.70921341  0.48755548  0.10811368     0.37400
N885        N  0.66910150  0.47089333  0.09290497    -0.89100
H886        H  0.68245259  0.47558472  0.15340239     0.18600
H887        H  0.56767222  0.52904548  0.09402613     0.18500
N888        N  0.58159585  0.53371711  0.15440639    -0.88200
H889        H  0.64422755  0.46216793  0.10893928     0.35900
H890        H  0.67639231  0.43647292  0.08134079     0.41000
H891        H  0.57519332  0.56826113  0.16609616     0.40600
H892        H  0.60644244  0.54183624  0.13824335     0.35500
C893        C  0.59181900  0.01896130  0.35740688    -0.26200
C894        C  0.62947611  0.99952535  0.34201617    -0.14300
C895        C  0.66624095  0.98207221  0.35928526     0.36400
C896        C  0.66439200  0.98364541  0.39145457    -0.25600
C897        C  0.62644986  0.00233887  0.40687025    -0.14900
C898        C  0.59006850  0.02120004  0.38961868     0.37400
N899        N  0.55186012  0.04333917  0.40472691    -0.89100
H900        H  0.56379983  0.03335107  0.34423993     0.18600
H901        H  0.69259949  0.96915720  0.40440321     0.18500
N902        N  0.70503724  0.96145782  0.34439795    -0.88200
H903        H  0.52787642  0.05468435  0.38862986     0.35900
H904        H  0.56243155  0.07691888  0.41591250     0.41000
H905        H  0.70967413  0.92366448  0.35206051     0.40600
H906        H  0.73261188  0.98320924  0.35134797     0.35500
C907        C  0.66432139  0.00413442  0.14109462    -0.26200
C908        C  0.62392285  0.99918803  0.15711285    -0.14300
C909        C  0.58375114  0.99617990  0.14018805     0.36400
C910        C  0.58497442  0.99739690  0.10795261    -0.25600
C911        C  0.62551561  0.00174496  0.09196072    -0.14900
C912        C  0.66555266  0.00558988  0.10893279     0.37400
N913        N  0.70769234  0.01118695  0.09377779    -0.89100
H914        H  0.69539572  0.00735868  0.15357775     0.18600
H915        H  0.55381493  0.99463625  0.09545135     0.18500
N916        N  0.54153603  0.99185388  0.15542100    -0.88200
H917        H  0.72780449  0.97997805  0.09994862     0.35900
H918        H  0.72269610  0.04507379  0.10172626     0.41000
H919        H  0.52590809  0.95822857  0.14764964     0.40600
H920        H  0.52186741  0.02327991  0.14894406     0.35500
O921        O  0.66188561  0.99637631  0.54303013    -0.74300
O922        O  0.66253642  0.00438154  0.95549369    -0.74300
O923        O  0.66185428  0.07214433  0.50028583    -0.74400
O924        O  0.66294307  0.92945755  0.99834991    -0.74400
O925        O  0.58785687  0.92449169  0.49754213    -0.74400
O926        O  0.58701250  0.07634688  0.99997179    -0.74400
O927        O  0.58820003  0.00386404  0.95539139    -0.74300
O928        O  0.58772270  0.99631157  0.54320111    -0.74400
Ni929      Ni  0.66473909  0.99825876  0.49923832     1.25400
Ni930      Ni  0.58528901  0.00257664  0.99938890     1.25400
C931        C  0.62492577  0.99597080  0.55772265     0.87900
C932        C  0.62546382  0.00493993  0.94095984     0.87800
C933        C  0.62464436  0.09652744  0.49976547     0.87800
C934        C  0.62495738  0.90004298  0.49631489     0.88000
O935        O  0.58755247  0.00253926  0.70650213    -0.74300
O936        O  0.59076024  0.00575218  0.79426713    -0.74300
O937        O  0.58958522  0.07804729  0.74985909    -0.74400
O938        O  0.58907460  0.93030280  0.75139874    -0.74400
O939        O  0.66332356  0.92987922  0.74994288    -0.74400
O940        O  0.66384731  0.07752792  0.74890204    -0.74400
O941        O  0.66506477  0.00464823  0.79317497    -0.74300
O942        O  0.66171138  0.00244755  0.70523467    -0.74400
Ni943      Ni  0.58660992  0.00419256  0.75045116     1.25400
Ni944      Ni  0.66613255  0.00365042  0.74915150     1.25400
C945        C  0.62407190  0.00178706  0.69126879     0.87900
C946        C  0.62833657  0.00538432  0.80822326     0.87800
C947        C  0.62685517  0.10224992  0.74993319     0.87800
C948        C  0.62616699  0.90567891  0.75160934     0.88000
C949        C  0.62447027  0.15346099  0.49655437     0.03200
C950        C  0.58407991  0.18066987  0.49471648    -0.12900
C951        C  0.58232845  0.23786587  0.98643799     0.00700
C952        C  0.62334739  0.26291915  0.98130955    -0.11400
C953        C  0.66427183  0.23807918  0.98704623     0.03200
C954        C  0.66471444  0.18045767  0.49341223    -0.10800
H955        H  0.55340552  0.16044527  0.49964908     0.08800
H956        H  0.62341882  0.30207962  0.97300452     0.06400
H957        H  0.69561342  0.16009078  0.49738282     0.06200
C958        C  0.62720014  0.15927960  0.75295000     0.03200
C959        C  0.66763193  0.18616231  0.75534825    -0.12900
C960        C  0.66851080  0.23926294  0.76233840     0.00700
C961        C  0.62751397  0.26471469  0.76732958    -0.11400
C962        C  0.58645954  0.23984349  0.76194662     0.03200
C963        C  0.58702885  0.18680219  0.75481973    -0.10800
H964        H  0.69829298  0.16531973  0.75131309     0.08800
H965        H  0.62750496  0.30416969  0.77527280     0.06400
H966        H  0.55626869  0.16647135  0.75031283     0.06200
C967        C  0.62475783  0.84328639  0.49184642     0.03200
C968        C  0.58431353  0.81638365  0.48946601    -0.12900
C969        C  0.58492624  0.76796128  0.98398230     0.00700
C970        C  0.62565847  0.74304083  0.97768481    -0.11400
C971        C  0.66681391  0.76796168  0.98252157     0.03200
C972        C  0.66493730  0.81596749  0.48913553    -0.10800
H973        H  0.55366661  0.83690797  0.49413111     0.08800
H974        H  0.62533162  0.70379538  0.96933135     0.06400
H975        H  0.69581182  0.83616006  0.49352719     0.06200
C976        C  0.62617244  0.84883295  0.75537785     0.03200
C977        C  0.66650225  0.82163524  0.75764453    -0.12900
C978        C  0.66719286  0.76872318  0.76487162     0.00700
C979        C  0.62612704  0.74373657  0.77017295    -0.11400
C980        C  0.58506127  0.76893679  0.76509874     0.03200
C981        C  0.58583335  0.82182371  0.75784987    -0.10800
H982        H  0.69727637  0.84200815  0.75328722     0.08800
H983        H  0.62616053  0.70435238  0.77809465     0.06400
H984        H  0.55510876  0.84235291  0.75357346     0.06200
C985        C  0.50094397  0.65850675  0.99377253     0.03200
C986        C  0.71004265  0.68530296  0.98982503    -0.12900
C987        C  0.70965055  0.73801559  0.98213436     0.00700
C988        C  0.50096399  0.76374850  0.97918197    -0.11400
C989        C  0.54191547  0.73851108  0.98423072     0.03200
C990        C  0.54128160  0.68554497  0.99134892    -0.10800
H991        H  0.67918093  0.66529603  0.99448617     0.08800
H992        H  0.50100205  0.80320052  0.97135756     0.06400
H993        H  0.57209015  0.66505925  0.99547538     0.06200
C994        C  0.50045846  0.65966080  0.75571788     0.03200
C995        C  0.54089276  0.68662546  0.75807205    -0.12900
C996        C  0.54179597  0.73963576  0.76524956     0.00700
C997        C  0.50079613  0.76496529  0.77045862    -0.11400
C998        C  0.71034717  0.73915800  0.76485133     0.03200
C999        C  0.71111137  0.68624375  0.75732200    -0.10800
H1000       H  0.57157962  0.66599904  0.75371907     0.08800
H1001       H  0.50078192  0.80450422  0.77827859     0.06400
H1002       H  0.68036721  0.66587813  0.75279244     0.06200
C1003       C  0.74860251  0.34759024  0.99526075     0.03200
C1004       C  0.53873675  0.32051677  0.99333632    -0.12900
C1005       C  0.53933213  0.26751494  0.98617103     0.01500
C1006       C  0.74819830  0.24192416  0.98162622    -0.11400
C1007       C  0.70734316  0.26741503  0.98678169     0.03200
C1008       C  0.70818910  0.32058432  0.99341947    -0.10800
H1009       H  0.56950597  0.34081090  0.99787730     0.08800
H1010       H  0.74802016  0.20234299  0.97390141     0.06400
H1011       H  0.67749788  0.34132953  0.99758940     0.06200
C1012       C  0.75286261  0.34855450  0.75291047     0.03200
C1013       C  0.71255154  0.32149510  0.75528195    -0.12900
C1014       C  0.71175057  0.26854067  0.76234669     0.00700
C1015       C  0.75275222  0.24325713  0.76733998    -0.11400
C1016       C  0.54335236  0.26943178  0.76195398     0.03200
C1017       C  0.54241347  0.32243353  0.75484183    -0.10800
H1018       H  0.68184766  0.34208399  0.75107218     0.08800
H1019       H  0.75278584  0.20385070  0.77520726     0.06400
H1020       H  0.57310302  0.34313965  0.75076346     0.06200
O1021       O  0.53495454  0.50058580  0.54396869    -0.74300
O1022       O  0.53832058  0.50202212  0.95561561    -0.74300
O1023       O  0.53773997  0.57687103  0.99877671    -0.74400
O1024       O  0.53634951  0.42899547  0.99956738    -0.74400
O1025       O  0.71170652  0.42934577  0.99806326    -0.74400
O1026       O  0.71244903  0.57706692  0.99731403    -0.74400
O1027       O  0.71363354  0.50258820  0.95402557    -0.74300
O1028       O  0.71029442  0.49792369  0.54201000    -0.74400
Ni1029     Ni  0.53979768  0.50288013  0.99946149     1.25400
Ni1030     Ni  0.70941394  0.50324400  0.99789815     1.25400
C1031       C  0.74711202  0.49783912  0.55693896     0.87900
C1032       C  0.75131149  0.50241721  0.94010440     0.87800
C1033       C  0.50074991  0.60161499  0.99748600     0.87800
C1034       C  0.49899168  0.40498524  0.99854920     0.88000
O1035       O  0.53696759  0.50617757  0.70537440    -0.74300
O1036       O  0.53793593  0.50331841  0.79326367    -0.74300
O1037       O  0.53820415  0.43102081  0.74860029    -0.74400
O1038       O  0.53740834  0.57849360  0.75050849    -0.74400
O1039       O  0.71451113  0.57765890  0.74950088    -0.74400
O1040       O  0.71536410  0.42978925  0.74866280    -0.74400
O1041       O  0.71474115  0.50322064  0.79251850    -0.74300
O1042       O  0.71456599  0.50408228  0.70489125    -0.74400
Ni1043     Ni  0.54025905  0.50479749  0.74930310     1.25400
Ni1044     Ni  0.71218786  0.50370348  0.74876184     1.25400
C1045       C  0.75157838  0.50429965  0.69022203     0.87900
C1046       C  0.75169008  0.50249854  0.80716111     0.87800
C1047       C  0.50128103  0.40626164  0.74929534     0.87800
C1048       C  0.50027294  0.60282588  0.75174217     0.88000
C1049       C  0.71386826  0.48751332  0.89007863    -0.26200
C1050       C  0.75235063  0.50256662  0.90610612    -0.14300
C1051       C  0.53959987  0.52024521  0.88989250     0.36400
C1052       C  0.53850527  0.51879700  0.85764289    -0.25600
C1053       C  0.75131292  0.50106462  0.84116131    -0.14900
C1054       C  0.71297200  0.48601941  0.85786206     0.37400
N1055       N  0.67347293  0.46848555  0.84223090    -0.89100
H1056       H  0.68442825  0.47585707  0.90274074     0.18600
H1057       H  0.56682351  0.53329823  0.84481499     0.18500
N1058       N  0.57793706  0.54103987  0.90547025    -0.88200
H1059       H  0.64805254  0.46022299  0.85792718     0.35900
H1060       H  0.68136809  0.43370006  0.83123398     0.41000
H1061       H  0.56791381  0.57496811  0.91658057     0.40600
H1062       H  0.60263511  0.55154531  0.88969748     0.35500
C1063       C  0.71166946  0.48783067  0.64097513    -0.26200
C1064       C  0.75084443  0.50359859  0.65610276    -0.14300
C1065       C  0.53684315  0.52208263  0.63958074     0.36400
C1066       C  0.53522969  0.51913151  0.60739396    -0.25600
C1067       C  0.74716645  0.49871448  0.59106742    -0.14900
C1068       C  0.70937785  0.48502333  0.60872003     0.37400
N1069       N  0.66905221  0.46772518  0.59405229    -0.89100
H1070       H  0.68276335  0.47673524  0.65437908     0.18600
H1071       H  0.56436367  0.53041670  0.59428540     0.18500
N1072       N  0.57655043  0.54054835  0.65454523    -0.88200
H1073       H  0.64415966  0.46057782  0.61036571     0.35900
H1074       H  0.67597260  0.43241100  0.58339299     0.41000
H1075       H  0.56864007  0.57559625  0.66519906     0.40600
H1076       H  0.60153012  0.54853587  0.63844450     0.35500
C1077       C  0.59259529  0.02822653  0.85788435    -0.26200
C1078       C  0.62881695  0.00606355  0.84217557    -0.14300
C1079       C  0.66420600  0.98444555  0.85912900     0.36400
C1080       C  0.66258149  0.98501342  0.89132873    -0.25600
C1081       C  0.62607109  0.00653360  0.90704125    -0.14900
C1082       C  0.59104020  0.02926988  0.89014717     0.37400
N1083       N  0.55455556  0.05423895  0.90571676    -0.89100
H1084       H  0.56566776  0.04560424  0.84492652     0.18600
H1085       H  0.68968972  0.96752074  0.90407189     0.18500
N1086       N  0.70113717  0.96037691  0.84382879    -0.88200
H1087       H  0.53158300  0.06879314  0.88987186     0.35900
H1088       H  0.56751577  0.08605784  0.91754486     0.41000
H1089       H  0.70286418  0.92200582  0.85103938     0.40600
H1090       H  0.73034291  0.97891268  0.85086886     0.35500
C1091       C  0.66378187  0.99540855  0.64115254    -0.26200
C1092       C  0.62322602  0.99976861  0.65711733    -0.14300
C1093       C  0.58312754  0.00185495  0.64007810     0.36400
C1094       C  0.58455287  0.99982960  0.60783366    -0.25600
C1095       C  0.62515012  0.99593466  0.59189836    -0.14900
C1096       C  0.66516098  0.99343894  0.60896933     0.37400
N1097       N  0.70747687  0.98909844  0.59389039    -0.89100
H1098       H  0.69494410  0.99346247  0.65365948     0.18600
H1099       H  0.55360386  0.00194206  0.59518260     0.18500
N1100       N  0.54084588  0.00655986  0.65519589    -0.88200
H1101       H  0.72325479  0.95570847  0.60177663     0.35900
H1102       H  0.72679351  0.02091217  0.60022914     0.41000
H1103       H  0.52111641  0.97515660  0.64873477     0.40600
H1104       H  0.52541579  0.04021751  0.64733597     0.35500
O1105       O  0.91241245  0.00028762  0.04132382    -0.74300
O1106       O  0.91079217  0.99864240  0.45288882    -0.74300
O1107       O  0.91103928  0.07573855  0.99837877    -0.74400
O1108       O  0.91135280  0.92447003  0.49604406    -0.74400
O1109       O  0.83806908  0.92752249  0.99688093    -0.74400
O1110       O  0.83795696  0.07246005  0.49795346    -0.74400
O1111       O  0.83649429  0.99920856  0.45375430    -0.74300
O1112       O  0.83820455  0.99968266  0.04196859    -0.74400
Ni1113     Ni  0.91439306  0.00195185  0.99749379     1.25400
Ni1114     Ni  0.83507227  0.99870583  0.49777530     1.25400
C1115       C  0.87561508  0.99903091  0.05619013     0.87900
C1116       C  0.87333705  0.99910638  0.43881982     0.87800
C1117       C  0.87371472  0.09987335  0.99819145     0.87800
C1118       C  0.87535332  0.90346384  0.99558855     0.88000
O1119       O  0.83856673  0.99740931  0.20427027    -0.74300
O1120       O  0.83976385  0.99893080  0.29175650    -0.74300
O1121       O  0.83959204  0.07211302  0.24777777    -0.74400
O1122       O  0.83929894  0.92439355  0.24851082    -0.74400
O1123       O  0.91358265  0.92444198  0.24765436    -0.74400
O1124       O  0.91387543  0.07188917  0.24751268    -0.74400
O1125       O  0.91408052  0.99817045  0.29143994    -0.74300
O1126       O  0.91276179  0.99775673  0.20347094    -0.74400
Ni1127     Ni  0.83668057  0.99824958  0.24801154     1.25400
Ni1128     Ni  0.91624696  0.99809232  0.24741395     1.25400
C1129       C  0.87528004  0.99740481  0.18932131     0.87900
C1130       C  0.87699088  0.99824376  0.30609161     0.87800
C1131       C  0.87680880  0.09644828  0.24805191     0.87800
C1132       C  0.87650743  0.90003818  0.24887825     0.88000
C1133       C  0.87339572  0.15687373  0.99533660     0.03200
C1134       C  0.83302354  0.18412544  0.99366995    -0.12900
C1135       C  0.83329642  0.23331917  0.48321302     0.00700
C1136       C  0.87411069  0.25834226  0.47730897    -0.11400
C1137       C  0.91531366  0.23377168  0.48271810     0.03200
C1138       C  0.91365181  0.18395182  0.99257744    -0.10800
H1139       H  0.80236968  0.16375499  0.99842462     0.08800
H1140       H  0.87377382  0.29737924  0.46881840     0.06400
H1141       H  0.94445100  0.16345859  0.99661179     0.06200
C1142       C  0.87695807  0.15348848  0.25056629     0.03200
C1143       C  0.91728236  0.18072088  0.25293297    -0.12900
C1144       C  0.91775331  0.23392705  0.25967338     0.00700
C1145       C  0.87661670  0.25907689  0.26428773    -0.11400
C1146       C  0.83581028  0.23376095  0.25899886     0.03200
C1147       C  0.83662013  0.18072798  0.25208444    -0.10800
H1148       H  0.94816915  0.16009258  0.24929240     0.08800
H1149       H  0.87628228  0.29859231  0.27214260     0.06400
H1150       H  0.80587948  0.16021416  0.24774272     0.06200
C1151       C  0.87558878  0.84668941  0.99174925     0.03200
C1152       C  0.83535969  0.81953221  0.98921970    -0.12900
C1153       C  0.83306299  0.76297291  0.48266705     0.00700
C1154       C  0.87421346  0.73798428  0.47775919    -0.11400
C1155       C  0.91506564  0.76339007  0.48319375     0.03200
C1156       C  0.91596799  0.81965463  0.98970789    -0.10800
H1157       H  0.80454438  0.83995494  0.99349320     0.08800
H1158       H  0.87436471  0.69839375  0.47003652     0.06400
H1159       H  0.94654904  0.84024905  0.99434272     0.06200
C1160       C  0.87686159  0.84328649  0.25255729     0.03200
C1161       C  0.91740771  0.81673063  0.25524241    -0.12900
C1162       C  0.91850554  0.76410649  0.26298650     0.00700
C1163       C  0.87767768  0.73880272  0.26854781    -0.11400
C1164       C  0.83655553  0.76317537  0.26284601     0.03200
C1165       C  0.83678588  0.81578077  0.25490472    -0.10800
H1166       H  0.94800998  0.83738804  0.25081686     0.08800
H1167       H  0.87780078  0.69974862  0.27704433     0.06400
H1168       H  0.80586096  0.83569151  0.25022521     0.06200
C1169       C  0.74888050  0.65347748  0.49320175     0.03200
C1170       C  0.95871409  0.68156210  0.49189067    -0.12900
C1171       C  0.95824551  0.73421541  0.48422163     0.00700
C1172       C  0.74925028  0.75789238  0.47663102    -0.11400
C1173       C  0.79011342  0.73315514  0.48268809     0.03200
C1174       C  0.78930339  0.68052997  0.49075990    -0.10800
H1175       H  0.92783106  0.66103965  0.49552828     0.08800
H1176       H  0.74938814  0.79690561  0.46805739     0.06400
H1177       H  0.82003483  0.66031833  0.49556642     0.06200
C1178       C  0.75261293  0.65313190  0.25434840     0.03200
C1179       C  0.79303163  0.68028089  0.25622652    -0.12900
C1180       C  0.79374774  0.73332208  0.26339668     0.00700
C1181       C  0.75291094  0.75836184  0.26920456    -0.11400
C1182       C  0.96171054  0.73490931  0.26284783     0.03200
C1183       C  0.96222849  0.68185145  0.25601247    -0.10800
H1184       H  0.82378504  0.65988882  0.25161064     0.08800
H1185       H  0.75310935  0.79781897  0.27718749     0.06400
H1186       H  0.93140004  0.66127794  0.25221128     0.06200
C1187       C  0.99830373  0.34441920  0.49267796     0.03200
C1188       C  0.78945487  0.31596507  0.49028218    -0.12900
C1189       C  0.79012896  0.26279210  0.48342669     0.01500
C1190       C  0.99952762  0.23887382  0.47862522    -0.11400
C1191       C  0.95815139  0.26381229  0.48279338     0.03200
C1192       C  0.95824288  0.31705351  0.48946022    -0.10800
H1193       H  0.82025859  0.33663540  0.49403491     0.08800
H1194       H  0.00014085  0.19933388  0.47085176     0.06400
H1195       H  0.92725450  0.33755001  0.49287712     0.06200
C1196       C  0.00157482  0.34418414  0.25278541     0.03200
C1197       C  0.96146196  0.31656049  0.25348382    -0.12900
C1198       C  0.96073350  0.26358942  0.26052281     0.00700
C1199       C  0.00154250  0.23886843  0.26697239    -0.11400
C1200       C  0.79265892  0.26290756  0.25957107     0.03200
C1201       C  0.79135015  0.31563527  0.25207618    -0.10800
H1202       H  0.93091164  0.33675591  0.24816970     0.08800
H1203       H  0.00116502  0.19954097  0.27494521     0.06400
H1204       H  0.82177608  0.33594900  0.24656140     0.06200
O1205       O  0.78481088  0.50336762  0.04284171    -0.74300
O1206       O  0.78717830  0.49851918  0.45502336    -0.74300
O1207       O  0.78579941  0.57215612  0.49882161    -0.74400
O1208       O  0.78594972  0.42440033  0.49822598    -0.74400
O1209       O  0.96085677  0.42582906  0.49707286    -0.74400
O1210       O  0.96138089  0.57360420  0.49929497    -0.74400
O1211       O  0.96194290  0.50162888  0.45454772    -0.74300
O1212       O  0.96084023  0.50049011  0.04238928    -0.74400
Ni1213     Ni  0.78845324  0.49824511  0.49887502     1.25400
Ni1214     Ni  0.95839526  0.49978057  0.49843108     1.25400
C1215       C  0.99775695  0.49931894  0.05716062     0.87900
C1216       C  0.99937904  0.50245510  0.44034100     0.87800
C1217       C  0.74871122  0.59663279  0.49741672     0.87800
C1218       C  0.74888848  0.39994335  0.49681819     0.88000
O1219       O  0.78830182  0.49912885  0.20447353    -0.74300
O1220       O  0.78831061  0.49620644  0.29244225    -0.74300
O1221       O  0.78801319  0.42394433  0.24766847    -0.74400
O1222       O  0.78920801  0.57147443  0.24962694    -0.74400
O1223       O  0.96458696  0.57359787  0.24886021    -0.74400
O1224       O  0.96403975  0.42561466  0.24876838    -0.74400
O1225       O  0.96311436  0.50002308  0.29236206    -0.74300
O1226       O  0.96446454  0.49946839  0.20475555    -0.74400
Ni1227     Ni  0.79112102  0.49764235  0.24844085     1.25400
Ni1228     Ni  0.96141357  0.49966659  0.24856463     1.25400
C1229       C  0.00168998  0.49947277  0.19036397     0.87900
C1230       C  0.99980181  0.49989892  0.30731619     0.87800
C1231       C  0.75080256  0.39972855  0.24829311     0.87800
C1232       C  0.75225940  0.59625801  0.25051212     0.88000
C1233       C  0.96133343  0.48848117  0.39039533    -0.26200
C1234       C  0.99979482  0.50393358  0.40632504    -0.14300
C1235       C  0.79045563  0.51139572  0.38908118     0.36400
C1236       C  0.78955980  0.50901328  0.35683168    -0.25600
C1237       C  0.99887583  0.50068087  0.34135536    -0.14900
C1238       C  0.96043813  0.48628950  0.35817213     0.37400
N1239       N  0.92092313  0.46847178  0.34267532    -0.89100
H1240       H  0.93202775  0.47666389  0.40314882     0.18600
H1241       H  0.81939304  0.51889891  0.34407199     0.18500
N1242       N  0.83059608  0.52712915  0.40460455    -0.88200
H1243       H  0.89550752  0.46055474  0.35844926     0.35900
H1244       H  0.92874507  0.43342570  0.33198569     0.41000
H1245       H  0.82413231  0.56256691  0.41526741     0.40600
H1246       H  0.85630893  0.53370520  0.38883970     0.35500
C1247       C  0.96238904  0.48416354  0.14081952    -0.26200
C1248       C  0.00138482  0.49957224  0.15627591    -0.14300
C1249       C  0.78819776  0.51778086  0.13877669     0.36400
C1250       C  0.78602788  0.51754631  0.10656812    -0.25600
C1251       C  0.99790644  0.49822483  0.09124140    -0.14900
C1252       C  0.96022395  0.48303018  0.10854946     0.37400
N1253       N  0.92014616  0.46587986  0.09349346    -0.89100
H1254       H  0.93350542  0.47215949  0.15396465     0.18600
H1255       H  0.81499784  0.52973446  0.09357768     0.18500
N1256       N  0.82827721  0.53463878  0.15394111    -0.88200
H1257       H  0.89531920  0.45738192  0.10961488     0.35900
H1258       H  0.92754320  0.43130338  0.08213578     0.41000
H1259       H  0.82084975  0.56898778  0.16554740     0.40600
H1260       H  0.85310437  0.54349975  0.13790313     0.35500
C1261       C  0.83906837  0.01758376  0.35548973    -0.26200
C1262       C  0.87656604  0.99788441  0.34002143    -0.14300
C1263       C  0.91236619  0.97778331  0.35718927     0.36400
C1264       C  0.91049461  0.97882051  0.38934322    -0.25600
C1265       C  0.87322849  0.99899795  0.40486860    -0.14900
C1266       C  0.83703321  0.01865128  0.38773166     0.37400
N1267       N  0.79879933  0.04047208  0.40297434    -0.89100
H1268       H  0.81148454  0.03317703  0.34237491     0.18600
H1269       H  0.93822674  0.96295940  0.40220871     0.18500
N1270       N  0.95011890  0.95493711  0.34217902    -0.88200
H1271       H  0.77485590  0.05221755  0.38692644     0.35900
H1272       H  0.80932003  0.07374763  0.41446137     0.41000
H1273       H  0.95276262  0.91672600  0.34950904     0.40600
H1274       H  0.97874635  0.97459292  0.34936840     0.35500
C1275       C  0.91442582  0.98810459  0.13922039    -0.26200
C1276       C  0.87453508  0.99692849  0.15528044    -0.14300
C1277       C  0.83483131  0.00480206  0.13847841     0.36400
C1278       C  0.83605253  0.00507864  0.10629418    -0.25600
C1279       C  0.87608806  0.99714250  0.09022333    -0.14900
C1280       C  0.91556368  0.98770696  0.10702449     0.37400
N1281       N  0.95686732  0.97701673  0.09168131    -0.89100
H1282       H  0.94503598  0.98085408  0.15166964     0.18600
H1283       H  0.80538962  0.01212170  0.09386902     0.18500
N1284       N  0.79310237  0.01259990  0.15384438    -0.88200
H1285       H  0.96827038  0.94098463  0.09897095     0.35900
H1286       H  0.98011814  0.00476931  0.09858336     0.41000
H1287       H  0.77158410  0.98297670  0.14708246     0.40600
H1288       H  0.77970071  0.04770778  0.14659393     0.35500
O1289       O  0.91352189  0.99782045  0.54051478    -0.74300
O1290       O  0.91125659  0.00332009  0.95365845    -0.74300
O1291       O  0.91221703  0.07225158  0.49681235    -0.74400
O1292       O  0.91234834  0.92815333  0.99627647    -0.74400
O1293       O  0.83708443  0.92491816  0.49702630    -0.74400
O1294       O  0.83676769  0.07509556  0.99882074    -0.74400
O1295       O  0.83702421  0.00239886  0.95411294    -0.74300
O1296       O  0.83936173  0.99808515  0.54171854    -0.74400
Ni1297     Ni  0.91460352  0.99828146  0.49663780     1.25400
Ni1298     Ni  0.83485755  0.00119649  0.99806451     1.25400
C1299       C  0.87699879  0.99772541  0.55570994     0.87900
C1300       C  0.87397142  0.00314456  0.93933257     0.87800
C1301       C  0.87507200  0.09679429  0.49665830     0.87800
C1302       C  0.87405336  0.90028791  0.49564635     0.88000
O1303       O  0.83994945  0.00215239  0.70411170    -0.74300
O1304       O  0.84063785  0.00294938  0.79178025    -0.74300
O1305       O  0.84054282  0.07662628  0.74806812    -0.74400
O1306       O  0.84002308  0.92893408  0.74836505    -0.74400
O1307       O  0.91430014  0.92847615  0.74806354    -0.74400
O1308       O  0.91480365  0.07632297  0.74765532    -0.74400
O1309       O  0.91488702  0.00263429  0.79155876    -0.74300
O1310       O  0.91410583  0.00163767  0.70354317    -0.74400
Ni1311     Ni  0.83768947  0.00274025  0.74795972     1.25400
Ni1312     Ni  0.91720218  0.00231883  0.74755928     1.25400
C1313       C  0.87675304  0.00132884  0.68922395     0.87900
C1314       C  0.87782401  0.00235483  0.80621883     0.87800
C1315       C  0.87772936  0.10095863  0.74862487     0.87800
C1316       C  0.87705420  0.90432347  0.74929988     0.88000
C1317       C  0.87482739  0.15369280  0.49309944     0.03200
C1318       C  0.83434115  0.18061574  0.49095242    -0.12900
C1319       C  0.83224993  0.23701473  0.98625211     0.00700
C1320       C  0.87312461  0.26172973  0.98013985    -0.11400
C1321       C  0.91425287  0.23670650  0.98504872     0.03200
C1322       C  0.91496971  0.18099601  0.49036966    -0.10800
H1323       H  0.80373946  0.16015451  0.49570582     0.08800
H1324       H  0.87286800  0.30079286  0.97169862     0.06400
H1325       H  0.94580413  0.16075581  0.49473490     0.06200
C1326       C  0.87779767  0.15799086  0.75215505     0.03200
C1327       C  0.91814261  0.18504820  0.75481448    -0.12900
C1328       C  0.91873573  0.23794936  0.76232987     0.00700
C1329       C  0.87773431  0.26309840  0.76749676    -0.11400
C1330       C  0.83677828  0.23830086  0.76184960     0.03200
C1331       C  0.83745987  0.18534927  0.75434341    -0.10800
H1332       H  0.94899424  0.16458372  0.75068808     0.08800
H1333       H  0.87770402  0.30236866  0.77579359     0.06400
H1334       H  0.80668037  0.16504692  0.74982572     0.06200
C1335       C  0.87376760  0.84341972  0.49204626     0.03200
C1336       C  0.83348955  0.81615729  0.48956925    -0.12900
C1337       C  0.83478771  0.76662288  0.98192243     0.00700
C1338       C  0.87591229  0.74149072  0.97698388    -0.11400
C1339       C  0.91685711  0.76661352  0.98267487     0.03200
C1340       C  0.91409354  0.81637249  0.49013791    -0.10800
H1341       H  0.80261694  0.83663982  0.49356587     0.08800
H1342       H  0.87599373  0.70200324  0.96908237     0.06400
H1343       H  0.94467320  0.83696885  0.49476524     0.06200
C1344       C  0.87676946  0.84766669  0.75380450     0.03200
C1345       C  0.91695813  0.82047013  0.75664668    -0.12900
C1346       C  0.91742280  0.76803741  0.76495745     0.00700
C1347       C  0.87637578  0.74353894  0.77086450    -0.11400
C1348       C  0.83547314  0.76849246  0.76508039     0.03200
C1349       C  0.83632536  0.82095140  0.75680459    -0.10800
H1350       H  0.94779772  0.84041724  0.75181420     0.08800
H1351       H  0.87624878  0.70453857  0.77947470     0.06400
H1352       H  0.80558149  0.84124691  0.75215499     0.06200
C1353       C  0.75018200  0.65789567  0.99238363     0.03200
C1354       C  0.96005899  0.68422791  0.99136460    -0.12900
C1355       C  0.95992129  0.73701872  0.98387706     0.00700
C1356       C  0.75073305  0.76253541  0.97645567    -0.11400
C1357       C  0.79163430  0.73726447  0.98186466     0.03200
C1358       C  0.79068115  0.68455956  0.98958836    -0.10800
H1359       H  0.92903025  0.66385557  0.99470222     0.08800
H1360       H  0.75083452  0.80173640  0.96820019     0.06400
H1361       H  0.82136078  0.66400403  0.99399828     0.06200
C1362       C  0.75147261  0.65907642  0.75489133     0.03200
C1363       C  0.79177856  0.68613192  0.75772257    -0.12900
C1364       C  0.79239464  0.73903156  0.76515631     0.00700
C1365       C  0.75136043  0.76420189  0.77029664    -0.11400
C1366       C  0.96027087  0.73820254  0.76482927     0.03200
C1367       C  0.96060933  0.68523138  0.75752699    -0.10800
H1368       H  0.82263735  0.66573482  0.75350584     0.08800
H1369       H  0.75141329  0.80367160  0.77826372     0.06400
H1370       H  0.92965280  0.66480963  0.75384953     0.06200
C1371       C  0.99832715  0.34660669  0.99290202     0.03200
C1372       C  0.78884544  0.32009903  0.99316829    -0.12900
C1373       C  0.78929600  0.26686566  0.98648474     0.01500
C1374       C  0.99847252  0.24076882  0.97955461    -0.11400
C1375       C  0.95738547  0.26614733  0.98439098     0.03200
C1376       C  0.95805124  0.31944916  0.99077066    -0.10800
H1377       H  0.81972304  0.34053871  0.99709793     0.08800
H1378       H  0.99860339  0.20104049  0.97212714     0.06400
H1379       H  0.92734933  0.34019742  0.99482041     0.06200
C1380       C  0.00257511  0.34780580  0.75409597     0.03200
C1381       C  0.96239699  0.32037845  0.75563255    -0.12900
C1382       C  0.96171212  0.26752604  0.76289881     0.00700
C1383       C  0.00255775  0.24268096  0.76887989    -0.11400
C1384       C  0.79378974  0.26816213  0.76202175     0.03200
C1385       C  0.79319353  0.32126378  0.75507940    -0.10800
H1386       H  0.93170317  0.34055441  0.75068179     0.08800
H1387       H  0.00222446  0.20338360  0.77693064     0.06400
H1388       H  0.82398298  0.34168155  0.75083705     0.06200
O1389       O  0.78451903  0.49792098  0.54270552    -0.74300
O1390       O  0.78786390  0.50184691  0.95523258    -0.74300
O1391       O  0.78671175  0.57649527  0.99833572    -0.74400
O1392       O  0.78596594  0.42882145  0.99919126    -0.74400
O1393       O  0.96129217  0.42822378  0.99711950    -0.74400
O1394       O  0.96225264  0.57603746  0.99912874    -0.74400
O1395       O  0.96257101  0.50376758  0.95449207    -0.74300
O1396       O  0.96010015  0.49818066  0.54244054    -0.74400
Ni1397     Ni  0.78894585  0.50263265  0.99906607     1.25400
Ni1398     Ni  0.95906068  0.50214956  0.99837748     1.25400
C1399       C  0.99697976  0.49758206  0.55726128     0.87900
C1400       C  0.00003163  0.50448311  0.94032104     0.87800
C1401       C  0.74975024  0.60117080  0.99671904     0.87800
C1402       C  0.74874860  0.40462816  0.99809113     0.88000
O1403       O  0.78879573  0.50442153  0.70470858    -0.74300
O1404       O  0.78898619  0.50330926  0.79274941    -0.74300
O1405       O  0.78963482  0.43014545  0.74859531    -0.74400
O1406       O  0.78877936  0.57789896  0.74954520    -0.74400
O1407       O  0.96373496  0.57671743  0.74928084    -0.74400
O1408       O  0.96481964  0.42882534  0.74938142    -0.74400
O1409       O  0.96373959  0.50316502  0.79279566    -0.74300
O1410       O  0.96416804  0.50239819  0.70516155    -0.74400
Ni1411     Ni  0.79172019  0.50402657  0.74875624     1.25400
Ni1412     Ni  0.96149115  0.50275219  0.74902129     1.25400
C1413       C  0.00128194  0.50237143  0.69060954     0.87900
C1414       C  0.00061347  0.50336710  0.80754252     0.87800
C1415       C  0.75263214  0.40551313  0.74941212     0.87800
C1416       C  0.75157771  0.60221392  0.75062880     0.88000
C1417       C  0.96348165  0.48652367  0.89038843    -0.26200
C1418       C  0.00052909  0.50582484  0.90638045    -0.14300
C1419       C  0.79088563  0.51699601  0.88942831     0.36400
C1420       C  0.78992890  0.51573536  0.85717755    -0.25600
C1421       C  0.99995754  0.50334590  0.84151004    -0.14900
C1422       C  0.96285548  0.48462181  0.85817334     0.37400
N1423       N  0.92506675  0.46274424  0.84247757    -0.89100
H1424       H  0.93522537  0.47156255  0.90309364     0.18600
H1425       H  0.81934681  0.52739525  0.84449402     0.18500
N1426       N  0.83059836  0.53372885  0.90510343    -0.88200
H1427       H  0.90033898  0.45189094  0.85814596     0.35900
H1428       H  0.93580392  0.42891640  0.83158442     0.41000
H1429       H  0.82324341  0.56869372  0.91605740     0.40600
H1430       H  0.85618767  0.54139687  0.88941919     0.35500
C1431       C  0.96090036  0.48891256  0.64121785    -0.26200
C1432       C  0.00080467  0.50161148  0.65646782    -0.14300
C1433       C  0.78840329  0.51777766  0.63841535     0.36400
C1434       C  0.78622587  0.51458711  0.60623214    -0.25600
C1435       C  0.99711618  0.49758816  0.59139693    -0.14900
C1436       C  0.95861621  0.48638298  0.60896684     0.37400
N1437       N  0.91752869  0.47185783  0.59422858    -0.89100
H1438       H  0.93132228  0.48003035  0.65451359     0.18600
H1439       H  0.81515911  0.52576121  0.59288399     0.18500
N1440       N  0.82836455  0.53633979  0.65300418    -0.88200
H1441       H  0.89232320  0.46607837  0.61050274     0.35900
H1442       H  0.92275490  0.43623188  0.58348122     0.41000
H1443       H  0.82064395  0.57149368  0.66360225     0.40600
H1444       H  0.85302669  0.54427356  0.63667095     0.35500
C1445       C  0.83786433  0.01492566  0.85574164    -0.26200
C1446       C  0.87742405  0.00170342  0.84026299    -0.14300
C1447       C  0.91540372  0.98814861  0.85757893     0.36400
C1448       C  0.91343049  0.98930853  0.88975177    -0.25600
C1449       C  0.87404721  0.00316043  0.90527285    -0.14900
C1450       C  0.83573109  0.01614036  0.88798517     0.37400
N1451       N  0.79500752  0.03130055  0.90302885    -0.89100
H1452       H  0.80851594  0.02539998  0.84264803     0.18600
H1453       H  0.94295183  0.97857688  0.90261108     0.18500
N1454       N  0.95582304  0.97211750  0.84275191    -0.88200
H1455       H  0.76986264  0.03836356  0.88694997     0.35900
H1456       H  0.80100005  0.06640789  0.91420434     0.41000
H1457       H  0.96358169  0.93497090  0.85031675     0.40600
H1458       H  0.98139694  0.99682534  0.84983296     0.35500
C1459       C  0.91689450  0.99953992  0.63900628    -0.26200
C1460       C  0.87625674  0.99978444  0.65506973    -0.14300
C1461       C  0.83607440  0.99817144  0.63814298     0.36400
C1462       C  0.83734692  0.99718054  0.60594816    -0.25600
C1463       C  0.87794355  0.99755177  0.58985393    -0.14900
C1464       C  0.91821253  0.99817947  0.60676837     0.37400
N1465       N  0.96061034  0.99731750  0.59154227    -0.89100
H1466       H  0.94804517  0.00054261  0.65150827     0.18600
H1467       H  0.80608406  0.99617162  0.59352880     0.18500
N1468       N  0.79371551  0.99751840  0.65337328    -0.88200
H1469       H  0.97797679  0.96469053  0.59896269     0.35900
H1470       H  0.97856208  0.02993174  0.59840476     0.41000
H1471       H  0.77673849  0.96416160  0.64656281     0.40600
H1472       H  0.77547193  0.02952729  0.64607372     0.35500
loop_ 
_geom_bond_atom_site_label_1 
_geom_bond_atom_site_label_2 
_geom_bond_distance 
_geom_bond_site_symmetry_2 
_ccdc_geom_bond_type 
O1           Ni9   1.907   1_554  S
O1           C11   1.278       .  A
O2         Ni193   1.909       .  S
O2           C12   1.280       .  A
O3           Ni9   1.923       .  S
O3           C13   1.284       .  A
O4         Ni193   1.922       .  S
O4          C198   1.284       .  A
O5         Ni194   1.914   1_565  S
O5           C14   1.280   1_554  A
O6          Ni10   1.914   1_545  S
O6          C197   1.281       .  A
O7          Ni10   1.913       .  S
O7           C12   1.281       .  A
O8         Ni194   1.914       .  S
O8           C11   1.282       .  A
Ni9         O186   1.907       .  S
Ni9         O188   1.923   1_545  S
Ni9        Ni194   2.386   1_556  S
Ni10        O189   1.915       .  S
Ni10        O192   1.911   1_565  S
Ni10       Ni193   2.386       .  S
C11         C175   1.479       .  S
C12         C161   1.481       .  S
C13         O190   1.281       .  A
C13          C29   1.486       .  S
C14         O188   1.284       .  A
C14          C47   1.485       .  S
O15         Ni23   1.906   1_545  S
O15          C25   1.280       .  A
O16         Ni23   1.909       .  S
O16          C26   1.280       .  A
O17         Ni23   1.917   1_545  S
O17          C27   1.282       .  A
O18         Ni23   1.915       .  S
O18          C28   1.281       .  A
O19         Ni24   1.919       .  S
O19          C28   1.283       .  A
O20         Ni24   1.921   1_545  S
O20          C27   1.283       .  A
O21         Ni24   1.914       .  S
O21          C26   1.281       .  A
O22         Ni24   1.915   1_545  S
O22          C25   1.281       .  A
Ni23        Ni24   2.385       .  S
C25         C172   1.480       .  S
C26         C158   1.480       .  S
C27          C38   1.486       .  S
C28          C56   1.483       .  S
C29          C30   1.406       .  A
C29          C34   1.402       .  A
C30         C215   1.411       .  A
C30          H35   1.081       .  S
C31          C85   1.503       .  S
C31          C32   1.410       .  A
C31         C214   1.410       .  A
C32          C33   1.410       .  A
C32          H36   1.079       .  S
C33          C87   1.499       .  S
C33         C218   1.407       .  A
C34         C217   1.409       .  A
C34          H37   1.081       .  S
C38          C39   1.402       .  A
C38          C43   1.403       .  A
C39          C40   1.410       .  A
C39          H44   1.080       .  S
C40          C94   1.504       .  S
C40          C41   1.411       .  A
C41          C42   1.412       .  A
C41          H45   1.078       .  S
C42          C96   1.507       .  S
C42          C43   1.411       .  A
C43          H46   1.080       .  S
C47          C48   1.406       .  A
C47          C52   1.401       .  A
C48         C233   1.411       .  A
C48          H53   1.081       .  S
C49          C69   1.503       .  S
C49          C50   1.409       .  A
C49         C232   1.411       .  A
C50          C51   1.409       .  A
C50          H54   1.079       .  S
C51          C67   1.500       .  S
C51         C236   1.408       .  A
C52         C235   1.407       .  A
C52          H55   1.081       .  S
C56          C57   1.402       .  A
C56          C61   1.404       .  A
C57          C58   1.408       .  A
C57          H62   1.081       .  S
C58          C78   1.501       .  S
C58          C59   1.411       .  A
C59          C60   1.409       .  A
C59          H63   1.079       .  S
C60          C76   1.503       .  S
C60          C61   1.409       .  A
C61          H64   1.081       .  S
C65         C113   1.483       .  S
C65          C70   1.404   1_655  A
C65        C1170   1.401       .  A
C66          C67   1.408       .  A
C66         C433   1.402       .  A
C66          H71   1.081       .  S
C67         C436   1.409       .  A
C68          C69   1.409   1_655  A
C68        C1171   1.412       .  A
C68          H72   1.079       .  S
C69          C70   1.410       .  A
C70          H73   1.081       .  S
C74         C128   1.483       .  S
C74          C75   1.405       .  A
C74        C1183   1.400   1_455  A
C75          C76   1.410       .  A
C75          H80   1.081       .  S
C76          C77   1.410       .  A
C77        C1182   1.411   1_455  A
C77          H81   1.079       .  S
C78          C79   1.407       .  A
C78         C445   1.410       .  A
C79         C442   1.401       .  A
C79          H82   1.081       .  S
C83         C482   1.481       .  S
C83          C88   1.402       .  A
C83         C452   1.402       .  A
C84          C85   1.409       .  A
C84        C1187   1.404   1_455  A
C84          H89   1.081       .  S
C85        C1190   1.409   1_455  A
C86          C87   1.409       .  A
C86         C453   1.409       .  A
C86          H90   1.079       .  S
C87          C88   1.407       .  A
C88          H91   1.081       .  S
C92         C495   1.484       .  S
C92          C93   1.404       .  A
C92         C465   1.403       .  A
C93          C94   1.410       .  A
C93          H98   1.080       .  S
C94          C95   1.410       .  A
C95         C464   1.409       .  A
C95          H99   1.079       .  S
C96          C97   1.411       .  A
C96        C1199   1.411       .  A
C97        C1196   1.405       .  A
C97         H100   1.080       .  S
O101       Ni293   1.907   1_554  S
O101       C1215   1.281   1_455  A
O102       Ni109   1.908       .  S
O102       C1216   1.279   1_455  A
O103       Ni109   1.916       .  S
O103        C113   1.281   1_455  A
O104       Ni109   1.916       .  S
O104        C114   1.281   1_455  A
O105       Ni110   1.914       .  S
O105        C482   1.281       .  A
O106       Ni110   1.913       .  S
O106        C481   1.281       .  A
O107       Ni110   1.911       .  S
O107        C112   1.281       .  A
O108       Ni294   1.913   1_554  S
O108        C111   1.281       .  A
Ni109       O285   1.908       .  S
Ni109     Ni1214   2.385   1_455  S
Ni110       O292   1.910       .  S
Ni110      Ni477   2.386       .  S
C111        O469   1.281       .  A
C111        C147   1.483       .  S
C112        O470   1.279       .  A
C112        C130   1.479       .  S
C113       O1210   1.283       .  A
C114       O1209   1.283       .  A
C114       C1187   1.485       .  S
O115       Ni123   1.915       .  S
O115       C1229   1.282       .  A
O116       Ni123   1.915       .  S
O116       C1230   1.282   1_455  A
O117       Ni123   1.913       .  S
O117        C127   1.280       .  A
O118       Ni123   1.913       .  S
O118        C128   1.280       .  A
O119       Ni124   1.913       .  S
O119        C496   1.281       .  A
O120       Ni124   1.917       .  S
O120        C495   1.282       .  A
O121       Ni124   1.906       .  S
O121        C126   1.279       .  A
O122       Ni124   1.907       .  S
O122        C125   1.280       .  A
Ni123     Ni1228   2.386   1_455  S
Ni124      Ni491   2.386       .  S
C125        O483   1.281       .  A
C125        C144   1.482       .  S
C126        O484   1.282       .  A
C126        C133   1.480       .  S
C127       O1224   1.284   1_455  A
C127       C1196   1.485       .  S
C128       O1223   1.284   1_455  A
C129        C130   1.404       .  A
C129        C134   1.401       .  A
C129        H136   1.084       .  S
C130        C499   1.415       .  A
C131        C132   1.402       .  A
C131       C1234   1.414   1_455  A
C131        N138   1.439       .  S
C132       C1237   1.404   1_455  A
C132        H137   1.084       .  S
C133        C134   1.415       .  A
C133        C500   1.404       .  A
C134        N135   1.439       .  S
N135        H139   1.046       .  S
N135        H140   1.046       .  S
N138        H141   1.046       .  S
N138        H142   1.045       .  S
C143        C144   1.405       .  A
C143        C148   1.402       .  A
C143        H150   1.083       .  S
C144        C513   1.414       .  A
C145        C146   1.401       .  A
C145       C1248   1.413       .  A
C145        N152   1.438       .  S
C146       C1251   1.405   1_455  A
C146        H151   1.083       .  S
C147        C148   1.414       .  A
C147        C514   1.406       .  A
C148        N149   1.439       .  S
N149        H153   1.046       .  S
N149        H154   1.046       .  S
N152        H155   1.046       .  S
N152        H156   1.045       .  S
C157        C158   1.405   1_545  A
C157        C162   1.404       .  A
C157        H164   1.083       .  S
C158        C159   1.410       .  A
C159        C160   1.400       .  A
C159        N166   1.433       .  S
C160        C161   1.405       .  A
C160        H165   1.084       .  S
C161        C162   1.415   1_565  A
C162        N163   1.438       .  S
N163        H167   1.044       .  S
N163        H168   1.047       .  S
N166        H169   1.046       .  S
N166        H170   1.045       .  S
C171        C172   1.405       .  A
C171        C176   1.403       .  A
C171        H178   1.084       .  S
C172        C173   1.412   1_545  A
C173        C174   1.398       .  A
C173        N180   1.432       .  S
C174        C175   1.402   1_565  A
C174        H179   1.084       .  S
C175        C176   1.414       .  A
C176        N177   1.433       .  S
N177        H181   1.045       .  S
N177        H182   1.046       .  S
N180        H183   1.046       .  S
N180        H184   1.045       .  S
O185       Ni193   1.908   1_545  S
O185        C195   1.279       .  A
O186        C196   1.279       .  A
O187       Ni193   1.919   1_545  S
O187        C197   1.283       .  A
O189        C198   1.281       .  A
O190       Ni194   1.915   1_556  S
O191       Ni194   1.914   1_556  S
O191        C196   1.282       .  A
O192        C195   1.281       .  A
C195        C359   1.475       .  S
C196        C345   1.478       .  S
C197        C213   1.483       .  S
C198        C231   1.485       .  S
O199       Ni207   1.906       .  S
O199        C209   1.279       .  A
O200       Ni207   1.907       .  S
O200        C210   1.280   1_545  A
O201       Ni207   1.917       .  S
O201        C211   1.282       .  A
O202       Ni207   1.917   1_565  S
O202        C212   1.281       .  A
O203       Ni208   1.917   1_565  S
O203        C212   1.282       .  A
O204       Ni208   1.919       .  S
O204        C211   1.282       .  A
O205       Ni208   1.912       .  S
O205        C210   1.281   1_545  A
O206       Ni208   1.913       .  S
O206        C209   1.281       .  A
Ni207      Ni208   2.387       .  S
C209        C356   1.476       .  S
C210        C342   1.477       .  S
C211        C222   1.485       .  S
C212        C240   1.483       .  S
C213        C214   1.404       .  A
C213        C218   1.401       .  A
C214        H219   1.081       .  S
C215        C269   1.504       .  S
C215        C216   1.410       .  A
C216        C217   1.409       .  A
C216        H220   1.079       .  S
C217        C271   1.501       .  S
C218        H221   1.081       .  S
C222        C223   1.403       .  A
C222        C227   1.403       .  A
C223        C224   1.410       .  A
C223        H228   1.081       .  S
C224        C278   1.501       .  S
C224        C225   1.409       .  A
C225        C226   1.409       .  A
C225        H229   1.079       .  S
C226        C280   1.504       .  S
C226        C227   1.410       .  A
C227        H230   1.080       .  S
C231        C232   1.406       .  A
C231        C236   1.402       .  A
C232        H237   1.081       .  S
C233        C253   1.504       .  S
C233        C234   1.410       .  A
C234        C235   1.411       .  A
C234        H238   1.079       .  S
C235        C251   1.499       .  S
C236        H239   1.081       .  S
C240        C241   1.402       .  A
C240        C245   1.404       .  A
C241        C242   1.408       .  A
C241        H246   1.081       .  S
C242        C262   1.498       .  S
C242        C243   1.409       .  A
C243        C244   1.408       .  A
C243        H247   1.080       .  S
C244        C260   1.499       .  S
C244        C245   1.409       .  A
C245        H248   1.081       .  S
C249        C297   1.485   1_455  S
C249       C1354   1.402   1_455  A
C249        C254   1.405       .  A
C250        C617   1.402       .  A
C250        C251   1.406       .  A
C250        H255   1.081       .  S
C251        C620   1.409       .  A
C252       C1355   1.412   1_455  A
C252        C253   1.410       .  A
C252        H256   1.079       .  S
C253        C254   1.410       .  A
C254        H257   1.081       .  S
C258        C312   1.484       .  S
C258        C259   1.404       .  A
C258       C1367   1.403   1_455  A
C259        C260   1.409       .  A
C259        H264   1.081       .  S
C260        C261   1.408       .  A
C261       C1366   1.409   1_455  A
C261        H265   1.080       .  S
C262        C629   1.409       .  A
C262        C263   1.407       .  A
C263        C626   1.401       .  A
C263        H266   1.081       .  S
C267        C666   1.483       .  S
C267        C636   1.401       .  A
C267        C272   1.404       .  A
C268       C1371   1.403   1_455  A
C268        C269   1.410       .  A
C268        H273   1.080       .  S
C269       C1374   1.410   1_455  A
C270        C637   1.408       .  A
C270        C271   1.409       .  A
C270        H274   1.080       .  S
C271        C272   1.411       .  A
C272        H275   1.081       .  S
C276        C679   1.483       .  S
C276        C277   1.403       .  A
C276        C649   1.403       .  A
C277        C278   1.410       .  A
C277        H282   1.081       .  S
C278        C279   1.408       .  A
C279        C648   1.408       .  A
C279        H283   1.079       .  S
C280       C1383   1.410       .  A
C280        C281   1.412       .  A
C281       C1380   1.404       .  A
C281        H284   1.080       .  S
O285       C1399   1.281   1_455  A
O286       Ni293   1.906       .  S
O286       C1400   1.279       .  A
O287       Ni293   1.917       .  S
O287        C297   1.281   1_455  A
O288       Ni293   1.916       .  S
O288        C298   1.282   1_455  A
O289       Ni294   1.916       .  S
O289        C666   1.281       .  A
O290       Ni294   1.913       .  S
O290        C665   1.281       .  A
O291       Ni294   1.912       .  S
O291        C296   1.281       .  A
O292        C295   1.280       .  A
Ni293     Ni1398   2.386   1_455  S
Ni294      Ni661   2.386       .  S
C295        O653   1.280       .  A
C295        C331   1.477       .  S
C296        O654   1.279       .  A
C296        C314   1.477       .  S
C297       O1394   1.283       .  A
C298       O1393   1.283       .  A
C298       C1371   1.485       .  S
O299       Ni307   1.914       .  S
O299       C1413   1.281       .  A
O300       Ni307   1.913       .  S
O300       C1414   1.281       .  A
O301       Ni307   1.916       .  S
O301        C311   1.281       .  A
O302       Ni307   1.915       .  S
O302        C312   1.281       .  A
O303       Ni308   1.916       .  S
O303        C680   1.282       .  A
O304       Ni308   1.918       .  S
O304        C679   1.282       .  A
O305       Ni308   1.905       .  S
O305        C310   1.279       .  A
O306       Ni308   1.905       .  S
O306        C309   1.279       .  A
Ni307     Ni1412   2.386   1_455  S
Ni308      Ni675   2.387       .  S
C309        O667   1.281       .  A
C309        C328   1.477       .  S
C310        O668   1.282       .  A
C310        C317   1.477       .  S
C311       O1408   1.283   1_455  A
C311       C1380   1.485       .  S
C312       O1407   1.283   1_455  A
C313        C314   1.403       .  A
C313        C318   1.402       .  A
C313        H320   1.084       .  S
C314        C683   1.414       .  A
C315       C1418   1.413       .  A
C315        C316   1.402       .  A
C315        N322   1.439       .  S
C316       C1421   1.403   1_455  A
C316        H321   1.084       .  S
C317        C684   1.403       .  A
C317        C318   1.414       .  A
C318        N319   1.439       .  S
N319        H323   1.046       .  S
N319        H324   1.046       .  S
N322        H325   1.046       .  S
N322        H326   1.045       .  S
C327        C328   1.405       .  A
C327        C332   1.401       .  A
C327        H334   1.084       .  S
C328        C697   1.412       .  A
C329       C1432   1.414       .  A
C329        C330   1.401       .  A
C329        N336   1.439       .  S
C330       C1435   1.405   1_455  A
C330        H335   1.083       .  S
C331        C698   1.405       .  A
C331        C332   1.413       .  A
C332        N333   1.439       .  S
N333        H337   1.045       .  S
N333        H338   1.046       .  S
N336        H339   1.046       .  S
N336        H340   1.045       .  S
C341        C342   1.404   1_545  A
C341        C346   1.403       .  A
C341        H348   1.083       .  S
C342        C343   1.409       .  A
C343        C344   1.400       .  A
C343        N350   1.433       .  S
C344        C345   1.406   1_565  A
C344        H349   1.084       .  S
C345        C346   1.413       .  A
C346        N347   1.438       .  S
N347        H351   1.044       .  S
N347        H352   1.047       .  S
N350        H353   1.041       .  S
N350        H354   1.049       .  S
C355        C356   1.404       .  A
C355        C360   1.402       .  A
C355        H362   1.084       .  S
C356        C357   1.410   1_545  A
C357        C358   1.397       .  A
C357        N364   1.432       .  S
C358        C359   1.401   1_565  A
C358        H363   1.083       .  S
C359        C360   1.412       .  A
C360        N361   1.433       .  S
N361        H365   1.044       .  S
N361        H366   1.047       .  S
N364        H367   1.045       .  S
N364        H368   1.045       .  S
O369       Ni377   1.910   1_554  S
O369        C379   1.280       .  A
O370       Ni561   1.910       .  S
O370        C380   1.281       .  A
O371       Ni377   1.915       .  S
O371        C381   1.282       .  A
O372       Ni561   1.914       .  S
O372        C566   1.281       .  A
O373       Ni562   1.917   1_565  S
O373        C382   1.282   1_554  A
O374       Ni378   1.918   1_545  S
O374        C565   1.282       .  A
O375       Ni378   1.908       .  S
O375        C380   1.280       .  A
O376       Ni562   1.910       .  S
O376        C379   1.280       .  A
Ni377       O554   1.910       .  S
Ni377       O556   1.920   1_545  S
Ni377      Ni562   2.386   1_556  S
Ni378       O557   1.917       .  S
Ni378       O560   1.908       .  S
Ni378      Ni561   2.386       .  S
C379        C543   1.474       .  S
C380        C529   1.479       .  S
C381        O558   1.282       .  A
C381        C397   1.483       .  S
C382        O556   1.282       .  A
C382        C415   1.486       .  S
O383       Ni391   1.905       .  S
O383        C393   1.279   1_565  A
O384       Ni391   1.905       .  S
O384        C394   1.279       .  A
O385       Ni391   1.921   1_545  S
O385        C395   1.283       .  A
O386       Ni391   1.920       .  S
O386        C396   1.283       .  A
O387       Ni392   1.917       .  S
O387        C396   1.281       .  A
O388       Ni392   1.915   1_545  S
O388        C395   1.281       .  A
O389       Ni392   1.914       .  S
O389        C394   1.281       .  A
O390       Ni392   1.916   1_545  S
O390        C393   1.282       .  A
Ni391      Ni392   2.386       .  S
C393        C540   1.475       .  S
C394        C526   1.478       .  S
C395        C406   1.485       .  S
C396        C424   1.486       .  S
C397        C398   1.402       .  A
C397        C402   1.403       .  A
C398        C583   1.409       .  A
C398        H403   1.081       .  S
C399        C453   1.501       .  S
C399        C582   1.409       .  A
C399        C400   1.409       .  A
C400        C401   1.409       .  A
C400        H404   1.079       .  S
C401        C455   1.502       .  S
C401        C586   1.409       .  A
C402        C585   1.408       .  A
C402        H405   1.081       .  S
C406        C407   1.404       .  A
C406        C411   1.402       .  A
C407        C408   1.409       .  A
C407        H412   1.081       .  S
C408        C462   1.502       .  S
C408        C409   1.409       .  A
C409        C410   1.410       .  A
C409        H413   1.079       .  S
C410        C464   1.501       .  S
C410        C411   1.409       .  A
C411        H414   1.081       .  S
C415        C416   1.404       .  A
C415        C420   1.404       .  A
C416        C601   1.410       .  A
C416        H421   1.081       .  S
C417        C437   1.499       .  S
C417        C600   1.407       .  A
C417        C418   1.410       .  A
C418        C419   1.410       .  A
C418        H422   1.079       .  S
C419        C435   1.502       .  S
C419        C604   1.409       .  A
C420        C603   1.410       .  A
C420        H423   1.081       .  S
C424        C425   1.406       .  A
C424        C429   1.402       .  A
C425        C426   1.412       .  A
C425        H430   1.081       .  S
C426        C446   1.503       .  S
C426        C427   1.408       .  A
C427        C428   1.410       .  A
C427        H431   1.080       .  S
C428        C444   1.500       .  S
C428        C429   1.408       .  A
C429        H432   1.081       .  S
C433        C481   1.480       .  S
C433        C438   1.401       .  A
C434        C801   1.403       .  A
C434        C435   1.409       .  A
C434        H439   1.081       .  S
C435        C804   1.410       .  A
C436        C437   1.410       .  A
C436        H440   1.079       .  S
C437        C438   1.407       .  A
C438        H441   1.081       .  S
C442        C496   1.480       .  S
C442        C443   1.401       .  A
C443        C444   1.408       .  A
C443        H448   1.081       .  S
C444        C445   1.410       .  A
C445        H449   1.079       .  S
C446        C813   1.408       .  A
C446        C447   1.411       .  A
C447        C810   1.405       .  A
C447        H450   1.081       .  S
C451        C850   1.485       .  S
C451        C820   1.404       .  A
C451        C456   1.403       .  A
C452        C453   1.409       .  A
C452        H457   1.081       .  S
C454        C821   1.408       .  A
C454        C455   1.409       .  A
C454        H458   1.079       .  S
C455        C456   1.410       .  A
C456        H459   1.081       .  S
C460        C863   1.486       .  S
C460        C461   1.404       .  A
C460        C833   1.403       .  A
C461        C462   1.409       .  A
C461        H466   1.081       .  S
C462        C463   1.409       .  A
C463        C832   1.409       .  A
C463        H467   1.079       .  S
C464        C465   1.408       .  A
C465        H468   1.081       .  S
O469       Ni661   1.910   1_554  S
O470       Ni477   1.907       .  S
O471       Ni477   1.914       .  S
O471        C481   1.282       .  A
O472       Ni477   1.915       .  S
O472        C482   1.282       .  A
O473       Ni478   1.917       .  S
O473        C850   1.282       .  A
O474       Ni478   1.916       .  S
O474        C849   1.282       .  A
O475       Ni478   1.910       .  S
O475        C480   1.281       .  A
O476       Ni662   1.914   1_554  S
O476        C479   1.281       .  A
Ni477       O653   1.905       .  S
Ni478       O660   1.911       .  S
Ni478      Ni845   2.385       .  S
C479        O837   1.280       .  A
C479        C515   1.482       .  S
C480        O838   1.279       .  A
C480        C498   1.480       .  S
O483       Ni491   1.915       .  S
O484       Ni491   1.914       .  S
O485       Ni491   1.916       .  S
O485        C495   1.282       .  A
O486       Ni491   1.915       .  S
O486        C496   1.281       .  A
O487       Ni492   1.917       .  S
O487        C864   1.281       .  A
O488       Ni492   1.918       .  S
O488        C863   1.282       .  A
O489       Ni492   1.905       .  S
O489        C494   1.279       .  A
O490       Ni492   1.907       .  S
O490        C493   1.280       .  A
Ni492      Ni859   2.385       .  S
C493        O851   1.281       .  A
C493        C512   1.482       .  S
C494        O852   1.281       .  A
C494        C501   1.480       .  S
C497        C498   1.404       .  A
C497        C502   1.400       .  A
C497        H504   1.083       .  S
C498        C867   1.415       .  A
C499        C500   1.402       .  A
C499        N506   1.439       .  S
C500        H505   1.084       .  S
C501        C868   1.405       .  A
C501        C502   1.415       .  A
C502        N503   1.439       .  S
N503        H507   1.045       .  S
N503        H508   1.046       .  S
N506        H509   1.046       .  S
N506        H510   1.045       .  S
C511        C512   1.406       .  A
C511        C516   1.402       .  A
C511        H518   1.083       .  S
C512        C881   1.414       .  A
C513        C514   1.404       .  A
C513        N520   1.439       .  S
C514        H519   1.084       .  S
C515        C882   1.406       .  A
C515        C516   1.414       .  A
C516        N517   1.439       .  S
N517        H521   1.046       .  S
N517        H522   1.046       .  S
N520        H523   1.046       .  S
N520        H524   1.046       .  S
C525        C526   1.405   1_545  A
C525        C530   1.402       .  A
C525        H532   1.083       .  S
C526        C527   1.410       .  A
C527        C528   1.399       .  A
C527        N534   1.433       .  S
C528        C529   1.405       .  A
C528        H533   1.084       .  S
C529        C530   1.415   1_565  A
C530        N531   1.439       .  S
N531        H535   1.043       .  S
N531        H536   1.048       .  S
N534        H537   1.045       .  S
N534        H538   1.046       .  S
C539        C540   1.404       .  A
C539        C544   1.401       .  A
C539        H546   1.084       .  S
C540        C541   1.411   1_545  A
C541        C542   1.399       .  A
C541        N548   1.433       .  S
C542        C543   1.402   1_565  A
C542        H547   1.084       .  S
C543        C544   1.410       .  A
C544        N545   1.433       .  S
N545        H549   1.044       .  S
N545        H550   1.046       .  S
N548        H551   1.045       .  S
N548        H552   1.046       .  S
O553       Ni561   1.908       .  S
O553        C563   1.280   1_565  A
O554        C564   1.281       .  A
O555       Ni561   1.914   1_545  S
O555        C565   1.281       .  A
O557        C566   1.282       .  A
O558       Ni562   1.919   1_556  S
O559       Ni562   1.908   1_556  S
O559        C564   1.280       .  A
O560        C563   1.280   1_565  A
C563        C727   1.478       .  S
C564        C713   1.483       .  S
C565        C581   1.483       .  S
C566        C599   1.482       .  S
O567       Ni575   1.906       .  S
O567        C577   1.278       .  A
O568       Ni575   1.906       .  S
O568        C578   1.280       .  A
O569       Ni575   1.919       .  S
O569        C579   1.283       .  A
O570       Ni575   1.919   1_565  S
O570        C580   1.283       .  A
O571       Ni576   1.913   1_565  S
O571        C580   1.281       .  A
O572       Ni576   1.915       .  S
O572        C579   1.281       .  A
O573       Ni576   1.914       .  S
O573        C578   1.281       .  A
O574       Ni576   1.912       .  S
O574        C577   1.282       .  A
Ni575      Ni576   2.385       .  S
C577        C724   1.478       .  S
C578        C710   1.483       .  S
C579        C590   1.483       .  S
C580        C608   1.483       .  S
C581        C582   1.402       .  A
C581        C586   1.403       .  A
C582        H587   1.081       .  S
C583        C637   1.499       .  S
C583        C584   1.410       .  A
C584        C585   1.408       .  A
C584        H588   1.080       .  S
C585        C639   1.501       .  S
C586        H589   1.080       .  S
C590        C591   1.405       .  A
C590        C595   1.401       .  A
C591        C592   1.411       .  A
C591        H596   1.081       .  S
C592        C646   1.502       .  S
C592        C593   1.409       .  A
C593        C594   1.408       .  A
C593        H597   1.079       .  S
C594        C648   1.498       .  S
C594        C595   1.407       .  A
C595        H598   1.081       .  S
C599        C600   1.401       .  A
C599        C604   1.404       .  A
C600        H605   1.081       .  S
C601        C621   1.502       .  S
C601        C602   1.408       .  A
C602        C603   1.409       .  A
C602        H606   1.079       .  S
C603        C619   1.502       .  S
C604        H607   1.081       .  S
C608        C609   1.404       .  A
C608        C613   1.402       .  A
C609        C610   1.408       .  A
C609        H614   1.081       .  S
C610        C630   1.501       .  S
C610        C611   1.409       .  A
C611        C612   1.409       .  A
C611        H615   1.080       .  S
C612        C628   1.500       .  S
C612        C613   1.409       .  A
C613        H616   1.081       .  S
C617        C665   1.482       .  S
C617        C622   1.403       .  A
C618        C985   1.404       .  A
C618        C619   1.410       .  A
C618        H623   1.081       .  S
C619        C988   1.408       .  A
C620        C621   1.409       .  A
C620        H624   1.079       .  S
C621        C622   1.411       .  A
C622        H625   1.081       .  S
C626        C680   1.482       .  S
C626        C627   1.403       .  A
C627        C628   1.409       .  A
C627        H632   1.081       .  S
C628        C629   1.408       .  A
C629        H633   1.080       .  S
C630        C997   1.411       .  A
C630        C631   1.408       .  A
C631        C994   1.401       .  A
C631        H634   1.081       .  S
C635       C1034   1.485       .  S
C635       C1004   1.402       .  A
C635        C640   1.404       .  A
C636        C637   1.407       .  A
C636        H641   1.081       .  S
C638       C1005   1.409       .  A
C638        C639   1.409       .  A
C638        H642   1.079       .  S
C639        C640   1.410       .  A
C640        H643   1.081       .  S
C644       C1047   1.485       .  S
C644        C645   1.402       .  A
C644       C1017   1.405       .  A
C645        C646   1.409       .  A
C645        H650   1.080       .  S
C646        C647   1.409       .  A
C647       C1016   1.410       .  A
C647        H651   1.079       .  S
C648        C649   1.408       .  A
C649        H652   1.081       .  S
O654       Ni661   1.908       .  S
O655       Ni661   1.919       .  S
O655        C665   1.282       .  A
O656       Ni661   1.918       .  S
O656        C666   1.283       .  A
O657       Ni662   1.917       .  S
O657       C1034   1.281       .  A
O658       Ni662   1.916       .  S
O658       C1033   1.282       .  A
O659       Ni662   1.912       .  S
O659        C664   1.281       .  A
O660        C663   1.280       .  A
Ni662     Ni1029   2.386       .  S
C663       O1021   1.281       .  A
C663        C699   1.480       .  S
C664       O1022   1.279       .  A
C664        C682   1.476       .  S
O667       Ni675   1.912       .  S
O668       Ni675   1.913       .  S
O669       Ni675   1.915       .  S
O669        C679   1.282       .  A
O670       Ni675   1.915       .  S
O670        C680   1.281       .  A
O671       Ni676   1.921       .  S
O671       C1048   1.283       .  A
O672       Ni676   1.921       .  S
O672       C1047   1.283       .  A
O673       Ni676   1.905       .  S
O673        C678   1.279       .  A
O674       Ni676   1.908       .  S
O674        C677   1.280       .  A
Ni676     Ni1043   2.386       .  S
C677       O1035   1.281       .  A
C677        C696   1.480       .  S
C678       O1036   1.281       .  A
C678        C685   1.476       .  S
C681        C682   1.403       .  A
C681        C686   1.401       .  A
C681        H688   1.084       .  S
C682       C1051   1.414       .  A
C683        C684   1.402       .  A
C683        N690   1.439       .  S
C684        H689   1.084       .  S
C685       C1052   1.403       .  A
C685        C686   1.414       .  A
C686        N687   1.439       .  S
N687        H691   1.046       .  S
N687        H692   1.046       .  S
N690        H693   1.046       .  S
N690        H694   1.046       .  S
C695        C696   1.406       .  A
C695        C700   1.403       .  A
C695        H702   1.084       .  S
C696       C1065   1.413       .  A
C697        C698   1.401       .  A
C697        N704   1.439       .  S
C698        H703   1.084       .  S
C699       C1066   1.405       .  A
C699        C700   1.414       .  A
C700        N701   1.439       .  S
N701        H705   1.046       .  S
N701        H706   1.046       .  S
N704        H707   1.046       .  S
N704        H708   1.046       .  S
C709        C710   1.406       .  A
C709        C714   1.402       .  A
C709        H716   1.083       .  S
C710        C711   1.411   1_545  A
C711        C712   1.400       .  A
C711        N718   1.433       .  S
C712        C713   1.406   1_565  A
C712        H717   1.084       .  S
C713        C714   1.415       .  A
C714        N715   1.439       .  S
N715        H719   1.047       .  S
N715        H720   1.043       .  S
N718        H721   1.044       .  S
N718        H722   1.047   1_565  S
C723        C724   1.402       .  A
C723        C728   1.398       .  A
C723        H730   1.083       .  S
C724        C725   1.413   1_545  A
C725        C726   1.401       .  A
C725        N732   1.433       .  S
C726        C727   1.404   1_565  A
C726        H731   1.084       .  S
C727        C728   1.410       .  A
C728        N729   1.431       .  S
N729        H733   1.043       .  S
N729        H734   1.047       .  S
N732        H735   1.046       .  S
N732        H736   1.044   1_565  S
O737       Ni745   1.903   1_554  S
O737        C747   1.279       .  A
O738       Ni929   1.904   1_545  S
O738        C748   1.279       .  A
O739       Ni745   1.917       .  S
O739        C749   1.283       .  A
O740       Ni929   1.920       .  S
O740        C934   1.283       .  A
O741       Ni930   1.916   1_565  S
O741        C750   1.282       .  A
O742       Ni746   1.916   1_545  S
O742        C933   1.281       .  A
O743       Ni746   1.913   1_545  S
O743        C748   1.281       .  A
O744       Ni930   1.913   1_554  S
O744        C747   1.281       .  A
Ni745       O922   1.905       .  S
Ni745       O924   1.919   1_545  S
Ni745      Ni930   2.386       .  S
Ni746       O925   1.916       .  S
Ni746       O928   1.915       .  S
Ni746      Ni929   2.385       .  S
C747        C911   1.482       .  S
C748        C897   1.475       .  S
C749        O926   1.281       .  A
C749        C765   1.482       .  S
C750        O924   1.282       .  A
C750        C783   1.484       .  S
O751       Ni759   1.906       .  S
O751        C761   1.279       .  A
O752       Ni759   1.904       .  S
O752        C762   1.280       .  A
O753       Ni759   1.916   1_545  S
O753        C763   1.282       .  A
O754       Ni759   1.916       .  S
O754        C764   1.282       .  A
O755       Ni760   1.916       .  S
O755        C764   1.281       .  A
O756       Ni760   1.917   1_545  S
O756        C763   1.282       .  A
O757       Ni760   1.911       .  S
O757        C762   1.280       .  A
O758       Ni760   1.912       .  S
O758        C761   1.282       .  A
Ni759      Ni760   2.386       .  S
C761        C908   1.482       .  S
C762        C894   1.474       .  S
C763        C774   1.484       .  S
C764        C792   1.482       .  S
C765        C766   1.403       .  A
C765        C770   1.401       .  A
C766        C951   1.410       .  A
C766        H771   1.081       .  S
C767        C821   1.501       .  S
C767        C950   1.410       .  A
C767        C768   1.408       .  A
C768        C769   1.409       .  A
C768        H772   1.079       .  S
C769        C823   1.500       .  S
C769        C954   1.408       .  A
C770        C953   1.407       .  A
C770        H773   1.081       .  S
C774        C775   1.402       .  A
C774        C779   1.403       .  A
C775        C776   1.409       .  A
C775        H780   1.081       .  S
C776        C830   1.501       .  S
C776        C777   1.408       .  A
C777        C778   1.408       .  A
C777        H781   1.079       .  S
C778        C832   1.501       .  S
C778        C779   1.410       .  A
C779        H782   1.081       .  S
C783        C784   1.403       .  A
C783        C788   1.404       .  A
C784        C969   1.408       .  A
C784        H789   1.081       .  S
C785        C805   1.502       .  S
C785        C968   1.409       .  A
C785        C786   1.410       .  A
C786        C787   1.409       .  A
C786        H790   1.080       .  S
C787        C803   1.501       .  S
C787        C972   1.409       .  A
C788        C971   1.410       .  A
C788        H791   1.081       .  S
C792        C793   1.402       .  A
C792        C797   1.401       .  A
C793        C794   1.409       .  A
C793        H798   1.081       .  S
C794        C814   1.500       .  S
C794        C795   1.410       .  A
C795        C796   1.410       .  A
C795        H799   1.079       .  S
C796        C812   1.500       .  S
C796        C797   1.407       .  A
C797        H800   1.081       .  S
C801        C849   1.484       .  S
C801        C806   1.402       .  A
C802       C1169   1.404       .  A
C802        C803   1.409       .  A
C802        H807   1.081       .  S
C803       C1172   1.409       .  A
C804        C805   1.410       .  A
C804        H808   1.079       .  S
C805        C806   1.409       .  A
C806        H809   1.081       .  S
C810        C864   1.486       .  S
C810        C811   1.402       .  A
C811        C812   1.408       .  A
C811        H816   1.081       .  S
C812        C813   1.410       .  A
C813        H817   1.079       .  S
C814       C1181   1.408       .  A
C814        C815   1.408       .  A
C815       C1178   1.403       .  A
C815        H818   1.081       .  S
C819       C1218   1.485       .  S
C819       C1188   1.404       .  A
C819        C824   1.402       .  A
C820        C821   1.410       .  A
C820        H825   1.081       .  S
C822       C1189   1.410       .  A
C822        C823   1.410       .  A
C822        H826   1.079       .  S
C823        C824   1.409       .  A
C824        H827   1.081       .  S
C828       C1231   1.484       .  S
C828        C829   1.403       .  A
C828       C1201   1.403       .  A
C829        C830   1.410       .  A
C829        H834   1.080       .  S
C830        C831   1.409       .  A
C831       C1200   1.408       .  A
C831        H835   1.079       .  S
C832        C833   1.411       .  A
C833        H836   1.081       .  S
O837      Ni1029   1.907   1_554  S
O838       Ni845   1.907       .  S
O839       Ni845   1.919       .  S
O839        C849   1.282       .  A
O840       Ni845   1.919       .  S
O840        C850   1.282       .  A
O841       Ni846   1.919       .  S
O841       C1218   1.283       .  A
O842       Ni846   1.920       .  S
O842       C1217   1.283       .  A
O843       Ni846   1.912       .  S
O843        C848   1.282       .  A
O844      Ni1030   1.912   1_554  S
O844        C847   1.280       .  A
Ni845      O1021   1.908       .  S
Ni846      O1028   1.916       .  S
Ni846     Ni1213   2.385       .  S
C847       O1205   1.280       .  A
C847        C883   1.479       .  S
C848       O1206   1.279       .  A
C848        C866   1.479       .  S
O851       Ni859   1.915       .  S
O852       Ni859   1.912       .  S
O853       Ni859   1.921       .  S
O853        C863   1.283       .  A
O854       Ni859   1.920       .  S
O854        C864   1.283       .  A
O855       Ni860   1.918       .  S
O855       C1232   1.283       .  A
O856       Ni860   1.920       .  S
O856       C1231   1.283       .  A
O857       Ni860   1.903       .  S
O857        C862   1.278       .  A
O858       Ni860   1.905       .  S
O858        C861   1.279       .  A
Ni860     Ni1227   2.386       .  S
C861       O1219   1.281       .  A
C861        C880   1.479       .  S
C862       O1220   1.282       .  A
C862        C869   1.479       .  S
C865        C866   1.403       .  A
C865        C870   1.400       .  A
C865        H872   1.083       .  S
C866       C1235   1.415       .  A
C867        C868   1.402       .  A
C867        N874   1.439       .  S
C868        H873   1.083       .  S
C869       C1236   1.404       .  A
C869        C870   1.415       .  A
C870        N871   1.439       .  S
N871        H875   1.045       .  S
N871        H876   1.046       .  S
N874        H877   1.046       .  S
N874        H878   1.045       .  S
C879        C880   1.406       .  A
C879        C884   1.403       .  A
C879        H886   1.084       .  S
C880       C1249   1.413       .  A
C881        C882   1.403       .  A
C881        N888   1.439       .  S
C882        H887   1.083       .  S
C883       C1250   1.405       .  A
C883        C884   1.414       .  A
C884        N885   1.439       .  S
N885        H889   1.046       .  S
N885        H890   1.046       .  S
N888        H891   1.046       .  S
N888        H892   1.045       .  S
C893        C894   1.404   1_545  A
C893        C898   1.401       .  A
C893        H900   1.084       .  S
C894        C895   1.409       .  A
C895        C896   1.399       .  A
C895        N902   1.433       .  S
C896        C897   1.405   1_565  A
C896        H901   1.084       .  S
C897        C898   1.412       .  A
C898        N899   1.438       .  S
N899        H903   1.046       .  S
N899        H904   1.045       .  S
N902        H905   1.046       .  S
N902        H906   1.046       .  S
C907        C908   1.403   1_545  A
C907        C912   1.398       .  A
C907        H914   1.082       .  S
C908        C909   1.414       .  A
C909        C910   1.401       .  A
C909        N916   1.433       .  S
C910        C911   1.405   1_565  A
C910        H915   1.083       .  S
C911        C912   1.413       .  A
C912        N913   1.432       .  S
N913        H917   1.045   1_545  S
N913        H918   1.045       .  S
N916        H919   1.046       .  S
N916        H920   1.045   1_565  S
O921       Ni929   1.905       .  S
O921        C931   1.279       .  A
O922        C932   1.279       .  A
O923       Ni929   1.919   1_545  S
O923        C933   1.283       .  A
O925        C934   1.281       .  A
O926       Ni930   1.914       .  S
O927       Ni930   1.913       .  S
O927        C932   1.281       .  A
O928        C931   1.282       .  A
C931       C1095   1.484       .  S
C932       C1081   1.474       .  S
C933        C949   1.484       .  S
C934        C967   1.484       .  S
O935       Ni943   1.909       .  S
O935        C945   1.279       .  A
O936       Ni943   1.907       .  S
O936        C946   1.280       .  A
O937       Ni943   1.918       .  S
O937        C947   1.282       .  A
O938       Ni943   1.919   1_565  S
O938        C948   1.283       .  A
O939       Ni944   1.916   1_565  S
O939        C948   1.281       .  A
O940       Ni944   1.918       .  S
O940        C947   1.282       .  A
O941       Ni944   1.912       .  S
O941        C946   1.281       .  A
O942       Ni944   1.912       .  S
O942        C945   1.282       .  A
Ni943      Ni944   2.386       .  S
C945       C1092   1.484   1_545  S
C946       C1078   1.475       .  S
C947        C958   1.485       .  S
C948        C976   1.484       .  S
C949        C950   1.404       .  A
C949        C954   1.403       .  A
C950        H955   1.081       .  S
C951       C1005   1.501       .  S
C951        C952   1.410       .  A
C952        C953   1.409       .  A
C952        H956   1.079       .  S
C953       C1007   1.500       .  S
C954        H957   1.081       .  S
C958        C959   1.403       .  A
C958        C963   1.402       .  A
C959        C960   1.410       .  A
C959        H964   1.080       .  S
C960       C1014   1.503       .  S
C960        C961   1.411       .  A
C961        C962   1.410       .  A
C961        H965   1.079       .  S
C962       C1016   1.503       .  S
C962        C963   1.409       .  A
C963        H966   1.081       .  S
C967        C968   1.403       .  A
C967        C972   1.402       .  A
C968        H973   1.081       .  S
C969        C989   1.500       .  S
C969        C970   1.408       .  A
C970        C971   1.409       .  A
C970        H974   1.080       .  S
C971        C987   1.501       .  S
C972        H975   1.081       .  S
C976        C977   1.404       .  A
C976        C981   1.403       .  A
C977        C978   1.409       .  A
C977        H982   1.081       .  S
C978        C998   1.504       .  S
C978        C979   1.411       .  A
C979        C980   1.412       .  A
C979        H983   1.079       .  S
C980        C996   1.504       .  S
C980        C981   1.409       .  A
C981        H984   1.081       .  S
C985       C1033   1.485       .  S
C985        C990   1.403       .  A
C986       C1353   1.402       .  A
C986        C987   1.409       .  A
C986        H991   1.081       .  S
C987       C1356   1.409       .  A
C988        C989   1.409       .  A
C988        H992   1.080       .  S
C989        C990   1.410       .  A
C990        H993   1.081       .  S
C994       C1048   1.484       .  S
C994        C995   1.404       .  A
C995        C996   1.409       .  A
C995       H1000   1.081       .  S
C996        C997   1.412       .  A
C997       H1001   1.079       .  S
C998       C1365   1.411       .  A
C998        C999   1.410       .  A
C999       C1362   1.404       .  A
C999       H1002   1.081       .  S
C1003      C1402   1.484       .  S
C1003      C1372   1.404       .  A
C1003      C1008   1.402       .  A
C1004      C1005   1.409       .  A
C1004      H1009   1.081       .  S
C1006      C1373   1.408       .  A
C1006      C1007   1.409       .  A
C1006      H1010   1.079       .  S
C1007      C1008   1.408       .  A
C1008      H1011   1.081       .  S
C1012      C1415   1.486       .  S
C1012      C1013   1.402       .  A
C1012      C1385   1.405       .  A
C1013      C1014   1.409       .  A
C1013      H1018   1.080       .  S
C1014      C1015   1.411       .  A
C1015      C1384   1.410       .  A
C1015      H1019   1.079       .  S
C1016      C1017   1.411       .  A
C1017      H1020   1.081       .  S
O1022     Ni1029   1.905       .  S
O1023     Ni1029   1.921       .  S
O1023      C1033   1.283       .  A
O1024     Ni1029   1.920       .  S
O1024      C1034   1.283       .  A
O1025     Ni1030   1.918       .  S
O1025      C1402   1.282       .  A
O1026     Ni1030   1.918       .  S
O1026      C1401   1.282       .  A
O1027     Ni1030   1.910       .  S
O1027      C1032   1.281       .  A
O1028      C1031   1.281       .  A
Ni1030    Ni1397   2.386       .  S
C1031      O1389   1.281       .  A
C1031      C1067   1.482       .  S
C1032      O1390   1.279       .  A
C1032      C1050   1.477       .  S
O1035     Ni1043   1.911       .  S
O1036     Ni1043   1.911       .  S
O1037     Ni1043   1.915       .  S
O1037      C1047   1.281       .  A
O1038     Ni1043   1.914       .  S
O1038      C1048   1.281       .  A
O1039     Ni1044   1.920       .  S
O1039      C1416   1.282       .  A
O1040     Ni1044   1.920       .  S
O1040      C1415   1.283       .  A
O1041     Ni1044   1.902       .  S
O1041      C1046   1.278       .  A
O1042     Ni1044   1.907       .  S
O1042      C1045   1.279       .  A
Ni1044    Ni1411   2.385       .  S
C1045      O1403   1.282       .  A
C1045      C1064   1.482       .  S
C1046      O1404   1.282       .  A
C1046      C1053   1.477       .  S
C1049      C1050   1.403       .  A
C1049      C1054   1.400       .  A
C1049      H1056   1.084       .  S
C1050      C1419   1.415       .  A
C1051      C1052   1.401       .  A
C1051      N1058   1.439       .  S
C1052      H1057   1.084       .  S
C1053      C1420   1.403       .  A
C1053      C1054   1.415       .  A
C1054      N1055   1.439       .  S
N1055      H1059   1.045       .  S
N1055      H1060   1.046       .  S
N1058      H1061   1.046       .  S
N1058      H1062   1.045       .  S
C1063      C1064   1.407       .  A
C1063      C1068   1.404       .  A
C1063      H1070   1.084       .  S
C1064      C1433   1.413       .  A
C1065      C1066   1.401       .  A
C1065      N1072   1.439       .  S
C1066      H1071   1.084       .  S
C1067      C1434   1.405       .  A
C1067      C1068   1.414       .  A
C1068      N1069   1.439       .  S
N1069      H1073   1.046       .  S
N1069      H1074   1.046       .  S
N1072      H1075   1.046       .  S
N1072      H1076   1.046       .  S
C1077      C1078   1.404       .  A
C1077      C1082   1.402       .  A
C1077      H1084   1.084       .  S
C1078      C1079   1.409   1_545  A
C1079      C1080   1.399       .  A
C1079      N1086   1.433       .  S
C1080      C1081   1.404   1_565  A
C1080      H1085   1.084       .  S
C1081      C1082   1.412       .  A
C1082      N1083   1.438       .  S
N1083      H1087   1.045       .  S
N1083      H1088   1.046       .  S
N1086      H1089   1.046       .  S
N1086      H1090   1.045       .  S
C1091      C1092   1.404       .  A
C1091      C1096   1.399       .  A
C1091      H1098   1.083       .  S
C1092      C1093   1.414   1_565  A
C1093      C1094   1.402   1_545  A
C1093      N1100   1.432       .  S
C1094      C1095   1.403       .  A
C1094      H1099   1.080   1_565  S
C1095      C1096   1.413       .  A
C1096      N1097   1.432       .  S
N1097      H1101   1.046       .  S
N1097      H1102   1.045   1_565  S
N1100      H1103   1.045   1_545  S
N1100      H1104   1.046       .  S
O1105     Ni1113   1.905   1_554  S
O1105      C1115   1.279   1_545  A
O1106     Ni1297   1.904       .  S
O1106      C1116   1.279       .  A
O1107     Ni1113   1.917       .  S
O1107      C1117   1.282       .  A
O1108     Ni1297   1.917       .  S
O1108      C1302   1.283       .  A
O1109     Ni1298   1.914   1_565  S
O1109      C1118   1.281       .  A
O1110     Ni1114   1.915   1_545  S
O1110      C1301   1.281       .  A
O1111     Ni1114   1.912       .  S
O1111      C1116   1.281       .  A
O1112     Ni1298   1.910   1_564  S
O1112      C1115   1.281       .  A
Ni1113     O1290   1.907       .  S
Ni1113     O1292   1.916   1_545  S
Ni1113    Ni1298   2.386       .  S
Ni1114     O1293   1.915       .  S
Ni1114     O1296   1.913       .  S
Ni1114    Ni1297   2.386       .  S
C1115      C1279   1.479       .  S
C1116      C1265   1.475       .  S
C1117      O1294   1.282       .  A
C1117      C1133   1.484       .  S
C1118      O1292   1.282       .  A
C1118      C1151   1.482       .  S
O1119     Ni1127   1.901       .  S
O1119      C1129   1.278       .  A
O1120     Ni1127   1.902       .  S
O1120      C1130   1.279       .  A
O1121     Ni1127   1.918   1_545  S
O1121      C1131   1.283       .  A
O1122     Ni1127   1.918       .  S
O1122      C1132   1.282       .  A
O1123     Ni1128   1.912       .  S
O1123      C1132   1.281       .  A
O1124     Ni1128   1.916   1_545  S
O1124      C1131   1.281       .  A
O1125     Ni1128   1.913       .  S
O1125      C1130   1.281       .  A
O1126     Ni1128   1.911       .  S
O1126      C1129   1.282       .  A
Ni1127    Ni1128   2.386       .  S
C1129      C1276   1.479       .  S
C1130      C1262   1.474       .  S
C1131      C1142   1.483       .  S
C1132      C1160   1.481       .  S
C1133      C1134   1.404       .  A
C1133      C1138   1.402       .  A
C1134      C1319   1.411       .  A
C1134      H1139   1.081       .  S
C1135      C1189   1.503       .  S
C1135      C1318   1.409       .  A
C1135      C1136   1.410       .  A
C1136      C1137   1.410       .  A
C1136      H1140   1.079       .  S
C1137      C1191   1.503       .  S
C1137      C1322   1.410       .  A
C1138      C1321   1.408       .  A
C1138      H1141   1.080       .  S
C1142      C1143   1.405       .  A
C1142      C1147   1.402       .  A
C1143      C1144   1.410       .  A
C1143      H1148   1.081       .  S
C1144      C1198   1.502       .  S
C1144      C1145   1.409       .  A
C1145      C1146   1.408       .  A
C1145      H1149   1.079       .  S
C1146      C1200   1.499       .  S
C1146      C1147   1.407       .  A
C1147      H1150   1.081       .  S
C1151      C1152   1.402       .  A
C1151      C1156   1.402       .  A
C1152      C1337   1.408       .  A
C1152      H1157   1.081       .  S
C1153      C1173   1.503       .  S
C1153      C1336   1.411       .  A
C1153      C1154   1.409       .  A
C1154      C1155   1.411       .  A
C1154      H1158   1.079       .  S
C1155      C1171   1.500       .  S
C1155      C1340   1.406       .  A
C1156      C1339   1.409       .  A
C1156      H1159   1.080       .  S
C1160      C1161   1.402       .  A
C1160      C1165   1.402       .  A
C1161      C1162   1.407       .  A
C1161      H1166   1.080       .  S
C1162      C1182   1.500       .  S
C1162      C1163   1.411       .  A
C1163      C1164   1.408       .  A
C1163      H1167   1.079       .  S
C1164      C1180   1.500       .  S
C1164      C1165   1.409       .  A
C1165      H1168   1.081       .  S
C1169      C1217   1.487       .  S
C1169      C1174   1.405       .  A
C1170      C1171   1.407       .  A
C1170      H1175   1.080       .  S
C1172      C1173   1.408       .  A
C1172      H1176   1.080       .  S
C1173      C1174   1.411       .  A
C1174      H1177   1.081       .  S
C1178      C1232   1.484       .  S
C1178      C1179   1.405       .  A
C1179      C1180   1.410       .  A
C1179      H1184   1.081       .  S
C1180      C1181   1.408       .  A
C1181      H1185   1.080       .  S
C1182      C1183   1.407       .  A
C1183      H1186   1.080       .  S
C1187      C1192   1.403       .  A
C1188      C1189   1.410       .  A
C1188      H1193   1.081       .  S
C1190      C1191   1.410       .  A
C1190      H1194   1.079   1_655  S
C1191      C1192   1.410       .  A
C1192      H1195   1.080       .  S
C1196      C1197   1.401   1_455  A
C1197      C1198   1.409       .  A
C1197      H1202   1.081       .  S
C1198      C1199   1.410   1_655  A
C1199      H1203   1.079       .  S
C1200      C1201   1.408       .  A
C1201      H1204   1.081       .  S
O1205     Ni1397   1.905   1_554  S
O1206     Ni1213   1.905       .  S
O1207     Ni1213   1.919       .  S
O1207      C1217   1.282       .  A
O1208     Ni1213   1.917       .  S
O1208      C1218   1.282       .  A
O1209     Ni1214   1.920       .  S
O1210     Ni1214   1.917       .  S
O1211     Ni1214   1.910       .  S
O1211      C1216   1.281       .  A
O1212     Ni1398   1.913   1_554  S
O1212      C1215   1.280       .  A
Ni1213     O1389   1.907       .  S
Ni1214     O1396   1.913       .  S
C1215      C1251   1.481       .  S
C1216      C1234   1.478       .  S
O1219     Ni1227   1.912       .  S
O1220     Ni1227   1.913       .  S
O1221     Ni1227   1.914       .  S
O1221      C1231   1.281       .  A
O1222     Ni1227   1.917       .  S
O1222      C1232   1.281       .  A
O1223     Ni1228   1.920       .  S
O1224     Ni1228   1.923       .  S
O1225     Ni1228   1.903       .  S
O1225      C1230   1.278       .  A
O1226     Ni1228   1.905       .  S
O1226      C1229   1.279   1_655  A
C1229      C1248   1.481       .  S
C1230      C1237   1.479       .  S
C1233      C1234   1.403       .  A
C1233      C1238   1.401       .  A
C1233      H1240   1.084       .  S
C1235      C1236   1.402       .  A
C1235      N1242   1.439       .  S
C1236      H1241   1.083       .  S
C1237      C1238   1.415       .  A
C1238      N1239   1.439       .  S
N1239      H1243   1.045       .  S
N1239      H1244   1.046       .  S
N1242      H1245   1.046       .  S
N1242      H1246   1.045       .  S
C1247      C1248   1.406   1_655  A
C1247      C1252   1.403       .  A
C1247      H1254   1.084       .  S
C1249      C1250   1.400       .  A
C1249      N1256   1.439       .  S
C1250      H1255   1.084       .  S
C1251      C1252   1.414       .  A
C1252      N1253   1.439       .  S
N1253      H1257   1.046       .  S
N1253      H1258   1.046       .  S
N1256      H1259   1.046       .  S
N1256      H1260   1.045       .  S
C1261      C1262   1.405   1_545  A
C1261      C1266   1.402       .  A
C1261      H1268   1.084       .  S
C1262      C1263   1.408       .  A
C1263      C1264   1.398       .  A
C1263      N1270   1.433       .  S
C1264      C1265   1.405       .  A
C1264      H1269   1.084       .  S
C1265      C1266   1.413   1_565  A
C1266      N1267   1.438       .  S
N1267      H1271   1.047       .  S
N1267      H1272   1.045       .  S
N1270      H1273   1.045       .  S
N1270      H1274   1.046       .  S
C1275      C1276   1.403       .  A
C1275      C1280   1.399       .  A
C1275      H1282   1.082       .  S
C1276      C1277   1.412   1_565  A
C1277      C1278   1.398       .  A
C1277      N1284   1.432       .  S
C1278      C1279   1.403   1_545  A
C1278      H1283   1.082       .  S
C1279      C1280   1.413       .  A
C1280      N1281   1.433       .  S
N1281      H1285   1.045       .  S
N1281      H1286   1.046   1_565  S
N1284      H1287   1.045   1_545  S
N1284      H1288   1.045       .  S
O1289     Ni1297   1.906       .  S
O1289      C1299   1.278       .  A
O1290      C1300   1.280       .  A
O1291     Ni1297   1.920   1_545  S
O1291      C1301   1.283       .  A
O1293      C1302   1.281       .  A
O1294     Ni1298   1.918       .  S
O1295     Ni1298   1.910       .  S
O1295      C1300   1.280       .  A
O1296      C1299   1.282       .  A
C1299      C1463   1.483       .  S
C1300      C1449   1.479       .  S
C1301      C1317   1.485       .  S
C1302      C1335   1.483       .  S
O1303     Ni1311   1.906       .  S
O1303      C1313   1.279       .  A
O1304     Ni1311   1.905       .  S
O1304      C1314   1.280       .  A
O1305     Ni1311   1.919       .  S
O1305      C1315   1.282       .  A
O1306     Ni1311   1.916   1_565  S
O1306      C1316   1.281       .  A
O1307     Ni1312   1.918   1_565  S
O1307      C1316   1.282       .  A
O1308     Ni1312   1.921       .  S
O1308      C1315   1.283       .  A
O1309     Ni1312   1.912       .  S
O1309      C1314   1.281       .  A
O1310     Ni1312   1.914       .  S
O1310      C1313   1.282       .  A
Ni1311    Ni1312   2.385       .  S
C1313      C1460   1.484   1_545  S
C1314      C1446   1.479       .  S
C1315      C1326   1.487       .  S
C1316      C1344   1.483       .  S
C1317      C1318   1.404       .  A
C1317      C1322   1.402       .  A
C1318      H1323   1.081       .  S
C1319      C1373   1.503       .  S
C1319      C1320   1.409       .  A
C1320      C1321   1.410       .  A
C1320      H1324   1.079       .  S
C1321      C1375   1.503       .  S
C1322      H1325   1.080       .  S
C1326      C1327   1.404       .  A
C1326      C1331   1.405       .  A
C1327      C1328   1.410       .  A
C1327      H1332   1.081       .  S
C1328      C1382   1.501       .  S
C1328      C1329   1.409       .  A
C1329      C1330   1.408       .  A
C1329      H1333   1.079       .  S
C1330      C1384   1.504       .  S
C1330      C1331   1.411       .  A
C1331      H1334   1.081       .  S
C1335      C1336   1.404       .  A
C1335      C1340   1.400       .  A
C1336      H1341   1.081       .  S
C1337      C1357   1.502       .  S
C1337      C1338   1.411       .  A
C1338      C1339   1.412       .  A
C1338      H1342   1.079       .  S
C1339      C1355   1.503       .  S
C1340      H1343   1.080       .  S
C1344      C1345   1.402       .  A
C1344      C1349   1.404       .  A
C1345      C1346   1.409       .  A
C1345      H1350   1.081       .  S
C1346      C1366   1.500       .  S
C1346      C1347   1.410       .  A
C1347      C1348   1.410       .  A
C1347      H1351   1.080       .  S
C1348      C1364   1.501       .  S
C1348      C1349   1.409       .  A
C1349      H1352   1.081       .  S
C1353      C1401   1.484       .  S
C1353      C1358   1.403       .  A
C1354      C1355   1.409       .  A
C1354      H1359   1.080       .  S
C1356      C1357   1.411       .  A
C1356      H1360   1.079       .  S
C1357      C1358   1.409       .  A
C1358      H1361   1.081       .  S
C1362      C1416   1.486       .  S
C1362      C1363   1.403       .  A
C1363      C1364   1.409       .  A
C1363      H1368   1.081       .  S
C1364      C1365   1.410       .  A
C1365      H1369   1.080       .  S
C1366      C1367   1.409       .  A
C1367      H1370   1.081       .  S
C1371      C1376   1.402       .  A
C1372      C1373   1.410       .  A
C1372      H1377   1.081       .  S
C1374      C1375   1.412       .  A
C1374      H1378   1.079       .  S
C1375      C1376   1.409       .  A
C1376      H1379   1.080       .  S
C1380      C1381   1.401   1_455  A
C1381      C1382   1.408       .  A
C1381      H1386   1.081       .  S
C1382      C1383   1.409   1_655  A
C1383      H1387   1.079       .  S
C1384      C1385   1.411       .  A
C1385      H1388   1.081       .  S
O1390     Ni1397   1.904       .  S
O1391     Ni1397   1.918       .  S
O1391      C1401   1.282       .  A
O1392     Ni1397   1.917       .  S
O1392      C1402   1.282       .  A
O1393     Ni1398   1.919       .  S
O1394     Ni1398   1.919       .  S
O1395     Ni1398   1.909       .  S
O1395      C1400   1.281   1_655  A
O1396      C1399   1.280       .  A
C1399      C1435   1.483       .  S
C1400      C1418   1.475       .  S
O1403     Ni1411   1.915       .  S
O1404     Ni1411   1.913       .  S
O1405     Ni1411   1.918       .  S
O1405      C1415   1.281       .  A
O1406     Ni1411   1.919       .  S
O1406      C1416   1.282       .  A
O1407     Ni1412   1.920       .  S
O1408     Ni1412   1.920       .  S
O1409     Ni1412   1.902       .  S
O1409      C1414   1.278   1_655  A
O1410     Ni1412   1.907       .  S
O1410      C1413   1.280   1_655  A
C1413      C1432   1.483       .  S
C1414      C1421   1.475   1_455  S
C1417      C1418   1.402   1_655  A
C1417      C1422   1.400       .  A
C1417      H1424   1.084       .  S
C1419      C1420   1.401       .  A
C1419      N1426   1.439       .  S
C1420      H1425   1.084       .  S
C1421      C1422   1.414       .  A
C1422      N1423   1.439       .  S
N1423      H1427   1.046       .  S
N1423      H1428   1.046       .  S
N1426      H1429   1.046       .  S
N1426      H1430   1.045       .  S
C1431      C1432   1.407   1_655  A
C1431      C1436   1.404       .  A
C1431      H1438   1.083       .  S
C1433      C1434   1.401       .  A
C1433      N1440   1.438       .  S
C1434      H1439   1.083       .  S
C1435      C1436   1.414       .  A
C1436      N1437   1.439       .  S
N1437      H1441   1.046       .  S
N1437      H1442   1.046       .  S
N1440      H1443   1.046       .  S
N1440      H1444   1.046       .  S
C1445      C1446   1.405       .  A
C1445      C1450   1.402       .  A
C1445      H1452   1.083       .  S
C1446      C1447   1.410   1_545  A
C1447      C1448   1.399       .  A
C1447      N1454   1.433       .  S
C1448      C1449   1.405   1_565  A
C1448      H1453   1.084       .  S
C1449      C1450   1.414       .  A
C1450      N1451   1.439       .  S
N1451      H1455   1.045       .  S
N1451      H1456   1.046       .  S
N1454      H1457   1.045       .  S
N1454      H1458   1.046       .  S
C1459      C1460   1.404       .  A
C1459      C1464   1.401       .  A
C1459      H1466   1.081   1_565  S
C1460      C1461   1.413       .  A
C1461      C1462   1.399       .  A
C1461      N1468   1.432       .  S
C1462      C1463   1.404       .  A
C1462      H1467   1.082       .  S
C1463      C1464   1.414       .  A
C1464      N1465   1.433       .  S
N1465      H1469   1.046       .  S
N1465      H1470   1.046   1_565  S
N1468      H1471   1.046       .  S
N1468      H1472   1.044   1_565  S
