geometry optimzed in LAMMPS
_audit_creation_date              2020-12-01 
_audit_creation_method            'lammps2cif' 
_symmetry_space_group_name_H-M    'P1' 
_symmetry_Int_Tables_number       1 
_symmetry_cell_setting            triclinic 
loop_ 
_symmetry_equiv_pos_as_xyz 
  x,y,z 
_cell_length_a                    51.10756714 
_cell_length_b                    50.91011477149649 
_cell_length_c                    50.92871833599663 
_cell_angle_alpha                 90.29928568330517 
_cell_angle_beta                  90.08799276015655 
_cell_angle_gamma                 89.96321639252868 
loop_ 
_atom_site_label 
_atom_site_type_symbol 
_atom_site_fract_x 
_atom_site_fract_y 
_atom_site_fract_z 
_atom_site_charge 
C1          C  0.50455728  0.79449277  0.70403813     0.03000
C2          C  0.50314272  0.78764381  0.67730563    -0.13200
C3          C  0.50444233  0.80719983  0.65804134     0.00500
C4          C  0.50658188  0.83352696  0.66575166    -0.11700
C5          C  0.50882535  0.84061429  0.69231832     0.03000
C6          C  0.50759610  0.82092966  0.71146304    -0.11100
H7          H  0.50095874  0.76723974  0.67154203     0.08600
H8          H  0.50652520  0.84861625  0.65081474     0.06100
H9          H  0.50920647  0.82605575  0.73208209     0.05900
C10         C  0.50388213  0.71467510  0.78430889     0.03000
C11         C  0.50654821  0.68788447  0.77796837    -0.13200
C12         C  0.50607870  0.66878284  0.79775429     0.00500
C13         C  0.50206357  0.67668333  0.82380353    -0.11700
C14         C  0.49833804  0.70316576  0.83035384     0.03000
C15         C  0.49961790  0.72218379  0.81056523    -0.11100
H16         H  0.50867507  0.68187474  0.75765299     0.08600
H17         H  0.50119403  0.66200889  0.83910765     0.06100
H18         H  0.49696583  0.74274568  0.81550683     0.05900
C19         C  0.79045164  0.71957546  0.49626283     0.03000
C20         C  0.81710719  0.72668403  0.49646493    -0.13200
C21         C  0.83665056  0.70730115  0.49578151     0.00500
C22         C  0.82928321  0.68081723  0.49526064    -0.11700
C23         C  0.80299014  0.67339680  0.49411218     0.03000
C24         C  0.78353733  0.69281271  0.49518998    -0.11100
H25         H  0.82256465  0.74723137  0.49681900     0.08600
H26         H  0.84424300  0.66570587  0.49542929     0.06100
H27         H  0.76310987  0.68716265  0.49440092     0.05900
C28         C  0.71018503  0.79977787  0.50050805     0.03000
C29         C  0.68361819  0.79329176  0.49754032    -0.13200
C30         C  0.66441861  0.81298837  0.49798399     0.00500
C31         C  0.67199437  0.83923810  0.50154155    -0.11700
C32         C  0.69841412  0.84601947  0.50485517     0.03000
C33         C  0.71748359  0.82619103  0.50395680    -0.11100
H34         H  0.67796711  0.77301205  0.49433231     0.08600
H35         H  0.65720157  0.85450829  0.50160281     0.06100
H36         H  0.73795420  0.83123768  0.50631920     0.05900
C37         C  0.78979859  0.50022465  0.69881228     0.03000
C38         C  0.81641330  0.49936235  0.70599483    -0.13200
C39         C  0.83601983  0.49895039  0.68667763     0.00500
C40         C  0.82870135  0.50053029  0.66014870    -0.11700
C41         C  0.80228228  0.50161360  0.65272337     0.03000
C42         C  0.78291044  0.50109726  0.67212078    -0.11100
H43         H  0.82180123  0.49841318  0.72655530     0.08600
H44         H  0.84367745  0.50107698  0.64511109     0.06100
H45         H  0.76247689  0.50135869  0.66649508     0.05900
C46         C  0.70954088  0.50458239  0.77880368     0.03000
C47         C  0.71692298  0.50416564  0.80541337    -0.13200
C48         C  0.69792237  0.50431782  0.82519408     0.00500
C49         C  0.67141086  0.50432356  0.81823922    -0.11700
C50         C  0.66365957  0.50378177  0.79180922     0.03000
C51         C  0.68281113  0.50432325  0.77210887    -0.11100
H52         H  0.73742350  0.50286830  0.81068000     0.08600
H53         H  0.65669975  0.50430654  0.83355971     0.06100
H54         H  0.67695040  0.50406802  0.75164910     0.05900
C55         C  0.78114612  0.79050471  0.99152763     0.03000
C56         C  0.80817471  0.78496637  0.99156534    -0.13200
C57         C  0.82653557  0.80551201  0.99305917     0.00500
C58         C  0.81755630  0.83153450  0.99354799    -0.11700
C59         C  0.79081204  0.83723283  0.99399327     0.03000
C60         C  0.77259211  0.81674545  0.99267466    -0.11100
H61         H  0.81484899  0.76477935  0.99076249     0.08600
H62         H  0.83147337  0.84759687  0.99395587     0.06100
H63         H  0.75184437  0.82116470  0.99297512     0.05900
C64         C  0.70040834  0.71091820  0.98707031     0.03000
C65         C  0.67404063  0.71876153  0.98790128    -0.13200
C66         C  0.65393684  0.69999689  0.98727268     0.00500
C67         C  0.66053918  0.67320139  0.98620964    -0.11700
C68         C  0.68683756  0.66487236  0.98684770     0.03000
C69         C  0.70667073  0.68403035  0.98693618    -0.11100
H70         H  0.66927379  0.73942116  0.98973366     0.08600
H71         H  0.64498173  0.65878532  0.98524497     0.06100
H72         H  0.72703333  0.67811252  0.98738241     0.05900
C73         C  0.79554287  0.00509160  0.78888929     0.03000
C74         C  0.82210953  0.00592016  0.78182051    -0.13200
C75         C  0.84157985  0.00593663  0.80127288     0.00500
C76         C  0.83428636  0.00529252  0.82778177    -0.11700
C77         C  0.80791463  0.00325189  0.83503753     0.03000
C78         C  0.78858097  0.00341864  0.81547829    -0.11100
H79         H  0.82760272  0.00612116  0.76128015     0.08600
H80         H  0.84929851  0.00633240  0.84279583     0.06100
H81         H  0.76811818  0.00226067  0.82092387     0.05900
C82         C  0.71348864  0.00687708  0.71067379     0.03000
C83         C  0.72089241  0.01123263  0.68447362    -0.13200
C84         C  0.70208695  0.01132905  0.66439275     0.00500
C85         C  0.67568506  0.00799481  0.67088976    -0.11700
C86         C  0.66784262  0.00402833  0.69693994     0.03000
C87         C  0.68685567  0.00377442  0.71687207    -0.11100
H88         H  0.74126865  0.01465897  0.67985293     0.08600
H89         H  0.66106671  0.00866597  0.65546670     0.06100
H90         H  0.68092215  0.00133000  0.73711831     0.05900
C91         C  0.00451102  0.79562729  0.78632041     0.03000
C92         C  0.00499178  0.82181308  0.77768835    -0.13200
C93         C  0.00497823  0.84247221  0.79593066     0.00500
C94         C  0.00354837  0.83692168  0.82275481    -0.11700
C95         C  0.00361340  0.81093525  0.83179291     0.03000
C96         C  0.00410691  0.79025156  0.81337837    -0.11100
H97         H  0.00583617  0.82606043  0.75687496     0.08600
H98         H  0.00249264  0.85308402  0.83665405     0.06100
H99         H  0.00403492  0.77006238  0.82001274     0.05900
C100        C  0.00267189  0.70386338  0.65969333     0.03000
C101        C  0.00294290  0.67714032  0.66614965    -0.13200
C102        C  0.00371267  0.66892987  0.69235031     0.00500
C103        C  0.00536350  0.68786173  0.71242266    -0.11700
C104        C  0.00615952  0.71475201  0.70627131     0.03000
C105        C  0.00462773  0.72265547  0.67985891    -0.11100
H106        H  0.00214935  0.66253098  0.65060270     0.08600
H107        H  0.00533551  0.68179519  0.73278664     0.06100
H108        H  0.00439947  0.74337816  0.67509975     0.05900
C109        C  0.49146797  0.21344796  0.69966515     0.03000
C110        C  0.49199230  0.22082428  0.67310338    -0.13200
C111        C  0.49212851  0.20167455  0.65317861     0.00500
C112        C  0.49258033  0.17502329  0.65995804    -0.11700
C113        C  0.49290616  0.16732575  0.68634082     0.03000
C114        C  0.49191612  0.18663017  0.70614598    -0.11100
H115        H  0.49234955  0.24144636  0.66793051     0.08600
H116        H  0.49326876  0.16020724  0.64459613     0.06100
H117        H  0.49242472  0.18074703  0.72654996     0.05900
C118        C  0.49542667  0.29508902  0.77947874     0.03000
C119        C  0.49500621  0.32173023  0.77231806    -0.13200
C120        C  0.49671517  0.34144811  0.79153258     0.00500
C121        C  0.49743818  0.33454610  0.81810715    -0.11700
C122        C  0.49702333  0.30810753  0.82578976     0.03000
C123        C  0.49640243  0.28838294  0.80629200    -0.11100
H124        H  0.49373509  0.32715686  0.75181676     0.08600
H125        H  0.49853375  0.34990742  0.83289672     0.06100
H126        H  0.49693896  0.26789720  0.81194709     0.05900
O127        O  0.46606113  0.00062092  0.68267975    -0.73100
O128        O  0.54397703  0.00480541  0.68566390    -0.74100
O129        O  0.50755121  0.96427418  0.68557301    -0.62700
O130        O  0.50232160  0.04211288  0.68255239    -0.71100
O131        O  0.50174243  0.04456753  0.72611537    -0.70700
O132        O  0.50470134  0.96528728  0.72906127    -0.61900
O133        O  0.54274057  0.00600113  0.72920825    -0.74400
O134        O  0.46390552  0.00380789  0.72611860    -0.73200
Cu135      Cu  0.50505558  0.00299212  0.68268104     1.04600
Cu136      Cu  0.50324184  0.00503557  0.72923624     1.04300
C137        C  0.45263216  0.00172975  0.70377691     0.93100
C138        C  0.55574729  0.00503100  0.70780399     0.92200
C139        C  0.50712208  0.95241210  0.70755976     0.84400
C140        C  0.50060037  0.05562557  0.70365497     0.90700
C141        C  0.00517519  0.21636292  0.78454458     0.03000
C142        C  0.00452729  0.22445494  0.81097154    -0.13200
C143        C  0.00335395  0.20576996  0.83104038     0.00500
C144        C  0.00256290  0.17903353  0.82452287    -0.11700
C145        C  0.00362913  0.17052821  0.79826485     0.03000
C146        C  0.00485641  0.18943259  0.77828453    -0.11100
H147        H  0.00532783  0.24518423  0.81583179     0.08600
H148        H  0.00142210  0.16472691  0.84017400     0.06100
H149        H  0.00616643  0.18333228  0.75792155     0.05900
C150        C  0.99769932  0.30844503  0.65759273     0.03000
C151        C  0.99806921  0.28883738  0.67693033    -0.13200
C152        C  0.00125416  0.29558301  0.70361157     0.00500
C153        C  0.00446417  0.32205706  0.71081608    -0.11700
C154        C  0.00485594  0.34163663  0.69162225     0.03000
C155        C  0.00175005  0.33467043  0.66517763    -0.11100
H156        H  0.99552310  0.26842959  0.67135386     0.08600
H157        H  0.00671745  0.32739929  0.73132683     0.06100
H158        H  0.00222534  0.34990934  0.65041014     0.05900
C159        C  0.21504522  0.00277402  0.78292574     0.03000
C160        C  0.22179267  0.00301557  0.80979560    -0.13200
C161        C  0.20224585  0.00311601  0.82915972     0.00500
C162        C  0.17593460  0.00335724  0.82149466    -0.11700
C163        C  0.16870063  0.00477296  0.79498201     0.03000
C164        C  0.18837069  0.00396568  0.77569907    -0.11100
H165        H  0.24217505  0.00365469  0.81564894     0.08600
H166        H  0.16089990  0.00315791  0.83648995     0.06100
H167        H  0.18296171  0.00460541  0.75513541     0.05900
C168        C  0.29484753  0.00207115  0.70147989     0.03000
C169        C  0.28717290  0.00201443  0.67489422    -0.13200
C170        C  0.30595807  0.00218248  0.65485146     0.00500
C171        C  0.33253591  0.00184790  0.66145863    -0.11700
C172        C  0.34069003  0.00060969  0.68773622     0.03000
C173        C  0.32171380  0.00106917  0.70773500    -0.11100
H174        H  0.26659638  0.00143123  0.66981068     0.08600
H175        H  0.34698436  0.00249111  0.64591087     0.06100
H176        H  0.32782401  0.00058261  0.72810789     0.05900
O177        O  0.00428572  0.04616754  0.76160204    -0.73100
O178        O  0.00317442  0.96676469  0.75910669    -0.74100
O179        O  0.96424506  0.00706035  0.76189750    -0.62700
O180        O  0.04359615  0.00588353  0.75889448    -0.71100
O181        O  0.04470985  0.00613995  0.80244944    -0.70700
O182        O  0.96665408  0.00436006  0.80532814    -0.61900
O183        O  0.00646015  0.96602855  0.80259483    -0.74400
O184        O  0.00520691  0.04430353  0.80511561    -0.73200
Cu185      Cu  0.00375426  0.00650461  0.75875296     1.04600
Cu186      Cu  0.00576772  0.00516366  0.80529229     1.04300
C187        C  0.00511116  0.05766813  0.78398031     0.93100
C188        C  0.00477843  0.95400008  0.78061386     0.92200
C189        C  0.95309567  0.00539509  0.78429126     0.84400
C190        C  0.05658210  0.00627444  0.78041755     0.90700
C191        C  0.20901061  0.50957789  0.70284350     0.03000
C192        C  0.21550711  0.51169819  0.67610188    -0.13200
C193        C  0.19586117  0.51374348  0.65696278     0.00500
C194        C  0.16954964  0.51308058  0.66470005    -0.11700
C195        C  0.16263483  0.51116243  0.69128309     0.03000
C196        C  0.18247595  0.50922209  0.71026678    -0.11100
H197        H  0.23586396  0.51203571  0.67017848     0.08600
H198        H  0.15429749  0.51351910  0.64990063     0.06100
H199        H  0.17726206  0.50748336  0.73079075     0.05900
C200        C  0.29111805  0.50025476  0.78111163     0.03000
C201        C  0.28418167  0.49897831  0.80785231    -0.13200
C202        C  0.30349735  0.49821138  0.82746524     0.00500
C203        C  0.32988892  0.49879421  0.82002966    -0.11700
C204        C  0.33724849  0.49923661  0.79351785     0.03000
C205        C  0.31776999  0.50050960  0.77411763    -0.11100
H206        H  0.26372481  0.49856565  0.81339135     0.08600
H207        H  0.34492140  0.49947263  0.83504250     0.06100
H208        H  0.32336894  0.50181615  0.75365910     0.05900
O209        O  0.99604683  0.54379916  0.68382581    -0.73100
O210        O  0.00410889  0.46580369  0.68484206    -0.74100
O211        O  0.96107297  0.50048300  0.68320526    -0.62700
O212        O  0.03882289  0.50899351  0.68527610    -0.71100
O213        O  0.03868786  0.50622912  0.72877380    -0.70700
O214        O  0.95932158  0.50439361  0.72657544    -0.61900
O215        O  0.99986405  0.46582356  0.72822309    -0.74400
O216        O  0.99848600  0.54490693  0.72735799    -0.73200
Cu217      Cu  0.00001733  0.50473437  0.68282933     1.04600
Cu218      Cu  0.99899737  0.50536122  0.72935145     1.04300
C219        C  0.99691701  0.55674822  0.70534640     0.93100
C220        C  0.00274403  0.45343972  0.70653499     0.92200
C221        C  0.94779668  0.50148566  0.70440462     0.84400
C222        C  0.05109208  0.50867425  0.70712274     0.90700
O223        O  0.46075456  0.50662991  0.75680470    -0.73100
O224        O  0.53957329  0.50579021  0.75620509    -0.74100
O225        O  0.49942530  0.46627085  0.75478314    -0.62700
O226        O  0.50071780  0.54564326  0.75886429    -0.71100
O227        O  0.50186258  0.54293381  0.80234586    -0.70700
O228        O  0.50005014  0.46478064  0.79838306    -0.61900
O229        O  0.53969664  0.50286796  0.79971359    -0.74400
O230        O  0.46160728  0.50421698  0.80031998    -0.73200
Cu231      Cu  0.50009105  0.50618830  0.75506072     1.04600
Cu232      Cu  0.50076022  0.50372247  0.80164151     1.04300
C233        C  0.44882619  0.50507862  0.77875241     0.93100
C234        C  0.55197093  0.50406758  0.77794250     0.92200
C235        C  0.49946128  0.45315837  0.77617500     0.84400
C236        C  0.50193717  0.55667127  0.78145277     0.90700
C237        C  0.48646960  0.71576623  0.20302655     0.03000
C238        C  0.48446132  0.68890138  0.20913600    -0.13200
C239        C  0.48506499  0.66975484  0.18915991     0.00500
C240        C  0.48791793  0.67792445  0.16300775    -0.11700
C241        C  0.48962979  0.70465024  0.15655208     0.03000
C242        C  0.48851329  0.72353346  0.17666416    -0.11100
H243        H  0.48245573  0.68299375  0.22944203     0.08600
H244        H  0.48904447  0.66335158  0.14747584     0.06100
H245        H  0.49003122  0.74420256  0.17190504     0.05900
C246        C  0.48607638  0.79604433  0.28410560     0.03000
C247        C  0.48671491  0.82239293  0.27592069    -0.13200
C248        C  0.48977101  0.84270765  0.29431671     0.00500
C249        C  0.49250163  0.83669275  0.32093865    -0.11700
C250        C  0.49267924  0.81055748  0.32947090     0.03000
C251        C  0.48912336  0.79025865  0.31098027    -0.11100
H252        H  0.48498016  0.82710238  0.25526378     0.08600
H253        H  0.49446753  0.85254079  0.33510932     0.06100
H254        H  0.48912209  0.77000202  0.31741489     0.05900
O255        O  0.45108918  0.70071366  0.99339443    -0.73100
O256        O  0.52906795  0.69793348  0.99332254    -0.74100
O257        O  0.49070061  0.70007462  0.03260542    -0.62700
O258        O  0.48946043  0.69871831  0.95443861    -0.71100
O259        O  0.49151095  0.74227799  0.95356340    -0.70700
O260        O  0.49133132  0.74369836  0.03279084    -0.61900
O261        O  0.53118038  0.74147239  0.99299204    -0.74400
O262        O  0.45171322  0.74430498  0.99286951    -0.73200
Cu263      Cu  0.49000046  0.69795008  0.99351757     1.04600
Cu264      Cu  0.49146906  0.74457071  0.99308685     1.04300
C265        C  0.43902323  0.72264396  0.99236672     0.93100
C266        C  0.54251799  0.71903475  0.99326576     0.92200
C267        C  0.49137460  0.72186554  0.04508882     0.84400
C268        C  0.49039514  0.72015998  0.94161500     0.90700
C269        C  0.20077124  0.80112395  0.00043484     0.03000
C270        C  0.17402730  0.79449333  0.00061539    -0.13200
C271        C  0.15478361  0.81414417  0.99970379     0.00500
C272        C  0.16254362  0.84054831  0.99856900    -0.11700
C273        C  0.18911878  0.84762169  0.99858422     0.03000
C274        C  0.20812528  0.82773385  0.99943564    -0.11100
H275        H  0.16822016  0.77407289  0.00188691     0.08600
H276        H  0.14770845  0.85573572  0.99752581     0.06100
H277        H  0.22865708  0.83293754  0.99941582     0.05900
C278        C  0.28072773  0.72049854  0.99612517     0.03000
C279        C  0.27441555  0.69367300  0.99792428    -0.13200
C280        C  0.29412898  0.67458726  0.99667546     0.00500
C281        C  0.32015771  0.68245357  0.99336277    -0.11700
C282        C  0.32700728  0.70913378  0.99208665     0.03000
C283        C  0.30704960  0.72809414  0.99326764    -0.11100
H284        H  0.25425034  0.68766312  0.00052317     0.08600
H285        H  0.33524504  0.66755848  0.99192416     0.06100
H286        H  0.31182116  0.74871871  0.99135925     0.05900
C287        C  0.00002097  0.79578936  0.20567555     0.03000
C288        C  0.99654599  0.78778126  0.17942630    -0.13200
C289        C  0.99275693  0.80653479  0.15966753     0.00500
C290        C  0.99305957  0.83330218  0.16627318    -0.11700
C291        C  0.99659826  0.84157101  0.19232355     0.03000
C292        C  0.00001690  0.82269837  0.21204300    -0.11100
H293        H  0.99641311  0.76705200  0.17447555     0.08600
H294        H  0.99064835  0.84783518  0.15096404     0.06100
H295        H  0.00315560  0.82886773  0.23219321     0.05900
C296        C  0.01304666  0.67093916  0.29796625     0.03000
C297        C  0.01003948  0.67734672  0.32460975    -0.13200
C298        C  0.00582050  0.70337526  0.33259694     0.00500
C299        C  0.00539599  0.72334592  0.31372175    -0.11700
C300        C  0.00802112  0.71722064  0.28690722     0.03000
C301        C  0.01198055  0.69098707  0.27916270    -0.11100
H302        H  0.01064239  0.66191780  0.33918114     0.08600
H303        H  0.00270182  0.74356729  0.31988484     0.06100
H304        H  0.01370939  0.68612533  0.25849164     0.05900
O305        O  0.99120150  0.77293395  0.03408083    -0.73100
O306        O  0.99251805  0.77639297  0.95509192    -0.74100
O307        O  0.03145683  0.77645394  0.99539593    -0.62700
O308        O  0.95212764  0.77333846  0.99340057    -0.71100
O309        O  0.95102025  0.81688629  0.99537113    -0.70700
O310        O  0.02897895  0.81983206  0.99876341    -0.61900
O311        O  0.99195355  0.81994952  0.95759220    -0.74400
O312        O  0.98850855  0.81643966  0.03611207    -0.73200
Cu313      Cu  0.99183593  0.77319443  0.99439739     1.04600
Cu314      Cu  0.98999210  0.81972991  0.99695985     1.04300
C315        C  0.98986377  0.79419190  0.04749902     0.93100
C316        C  0.99299600  0.79881153  0.94397811     0.92200
C317        C  0.04260543  0.79884478  0.99790525     0.84400
C318        C  0.93916842  0.79484658  0.99415120     0.90700
C319        C  0.20995489  0.72059108  0.49910687     0.03000
C320        C  0.21632338  0.69362831  0.49995666    -0.13200
C321        C  0.19661584  0.67446277  0.49917392     0.00500
C322        C  0.17039910  0.68250544  0.49862097    -0.11700
C323        C  0.16359212  0.70904486  0.49681668     0.03000
C324        C  0.18344391  0.72806017  0.49690425    -0.11100
H325        H  0.23662054  0.68756775  0.50041764     0.08600
H326        H  0.15502644  0.66783417  0.49882158     0.06100
H327        H  0.17826399  0.74851209  0.49435583     0.05900
C328        C  0.29182562  0.79976120  0.49390723     0.03000
C329        C  0.28428652  0.82619080  0.49073379    -0.13200
C330        C  0.30313994  0.84612052  0.48936281     0.00500
C331        C  0.32971303  0.83954602  0.49060219    -0.11700
C332        C  0.33766994  0.81342548  0.49431323     0.03000
C333        C  0.31863593  0.79363225  0.49598678    -0.11100
H334        H  0.26375948  0.83129343  0.48917673     0.08600
H335        H  0.34425891  0.85495527  0.48912183     0.06100
H336        H  0.32473876  0.77359402  0.49958987     0.05900
O337        O  0.03948935  0.74258679  0.49561822    -0.73100
O338        O  0.96061963  0.74180736  0.49672934    -0.74100
O339        O  0.00083275  0.74252161  0.53595275    -0.62700
O340        O  0.99972917  0.74157338  0.45654116    -0.71100
O341        O  0.99931548  0.69795616  0.45702526    -0.70700
O342        O  0.00081898  0.69889563  0.53535309    -0.61900
O343        O  0.96147909  0.69821853  0.49667674    -0.74400
O344        O  0.03936905  0.69898602  0.49503475    -0.73200
Cu345      Cu  0.00013825  0.74372895  0.49626373     1.04600
Cu346      Cu  0.00031143  0.69706826  0.49614006     1.04300
C347        C  0.05176446  0.72074825  0.49449740     0.93100
C348        C  0.94870197  0.71973227  0.49624912     0.92200
C349        C  0.00074629  0.72058122  0.54805704     0.84400
C350        C  0.99942548  0.71951099  0.44438671     0.90700
O351        O  0.50205173  0.81893863  0.53328842    -0.73100
O352        O  0.49989425  0.82020502  0.45471891    -0.74100
O353        O  0.46204590  0.81933903  0.49538361    -0.62700
O354        O  0.53992582  0.82016304  0.49258472    -0.71100
O355        O  0.54091150  0.77658261  0.49182141    -0.70700
O356        O  0.46172249  0.77576006  0.49435588    -0.61900
O357        O  0.49961953  0.77657691  0.45363198    -0.74400
O358        O  0.50264002  0.77530846  0.53265706    -0.73200
Cu359      Cu  0.50100217  0.82111002  0.49402658     1.04600
Cu360      Cu  0.50130260  0.77445862  0.49308149     1.04300
C361        C  0.50211984  0.79700517  0.54536774     0.93100
C362        C  0.49926629  0.79864499  0.44180296     0.92200
C363        C  0.44948658  0.79767541  0.49534593     0.84400
C364        C  0.55278055  0.79871274  0.49154770     0.90700
C365        C  0.50704117  0.21590449  0.28082076     0.03000
C366        C  0.50745634  0.18896408  0.27444687    -0.13200
C367        C  0.50863332  0.17001877  0.29442243     0.00500
C368        C  0.50895976  0.17831677  0.32072430    -0.11700
C369        C  0.50879470  0.20507347  0.32723916     0.03000
C370        C  0.50775145  0.22382663  0.30725438    -0.11100
H371        H  0.50715065  0.18283024  0.25404158     0.08600
H372        H  0.50905168  0.16387882  0.33630076     0.06100
H373        H  0.50752813  0.24454968  0.31224897     0.05900
C374        C  0.50897858  0.29544728  0.20023062     0.03000
C375        C  0.50937573  0.32244192  0.20632111    -0.13200
C376        C  0.51106659  0.34121313  0.18623180     0.00500
C377        C  0.51204597  0.33262855  0.16002847    -0.11700
C378        C  0.51176081  0.30575617  0.15374323     0.03000
C379        C  0.50979062  0.28723982  0.17389389    -0.11100
H380        H  0.50852046  0.32879081  0.22664461     0.08600
H381        H  0.51272374  0.34692252  0.14434271     0.06100
H382        H  0.50956213  0.26646161  0.16914399     0.05900
O383        O  0.45919464  0.00843276  0.25547362    -0.73100
O384        O  0.53823556  0.00374334  0.26124897    -0.74100
O385        O  0.49635936  0.96645915  0.25749946    -0.62700
O386        O  0.50107701  0.04550972  0.25886341    -0.71100
O387        O  0.50013359  0.04488985  0.30244685    -0.70700
O388        O  0.49090776  0.96675237  0.30075897    -0.61900
O389        O  0.53440830  0.00120810  0.30453583    -0.74400
O390        O  0.45682749  0.01061885  0.29896067    -0.73200
Cu391      Cu  0.49884302  0.00601725  0.25668175     1.04600
Cu392      Cu  0.49548474  0.00581321  0.30313297     1.04300
C393        C  0.44570084  0.01074341  0.27650844     0.93100
C394        C  0.54870078  0.00153979  0.28398973     0.92200
C395        C  0.49229611  0.95426995  0.27897891     0.84400
C396        C  0.50146110  0.05758967  0.28092905     0.90700
O397        O  0.46401627  0.27293251  0.99111854    -0.73100
O398        O  0.54322053  0.26803617  0.98834641    -0.74100
O399        O  0.50476787  0.26890017  0.02927386    -0.62700
O400        O  0.50215624  0.27185354  0.94996242    -0.71100
O401        O  0.50373828  0.31539361  0.95195134    -0.70700
O402        O  0.50924377  0.31227166  0.03034292    -0.61900
O403        O  0.54511115  0.31157361  0.98825142    -0.74400
O404        O  0.46729233  0.31626306  0.99431153    -0.73200
Cu405      Cu  0.50340726  0.26883583  0.98959690     1.04600
Cu406      Cu  0.50636606  0.31531441  0.99127753     1.04300
C407        C  0.45329052  0.29550934  0.99375002     0.93100
C408        C  0.55656654  0.28929527  0.98754370     0.92200
C409        C  0.50777768  0.29028079  0.04219086     0.84400
C410        C  0.50288039  0.29414551  0.93851186     0.90700
C411        C  0.20714304  0.29956501  0.48874946     0.03000
C412        C  0.18076694  0.29213527  0.49186318    -0.13200
C413        C  0.16100649  0.31128984  0.49362062     0.00500
C414        C  0.16805120  0.33788904  0.49272093    -0.11700
C415        C  0.19407958  0.34569040  0.48903881     0.03000
C416        C  0.21361682  0.32639073  0.48737568    -0.11100
H417        H  0.17575585  0.27154091  0.49348628     0.08600
H418        H  0.15298882  0.35276433  0.49453773     0.06100
H419        H  0.23381685  0.33218384  0.48457801     0.05900
C420        C  0.28886569  0.22043726  0.48873965     0.03000
C421        C  0.31545761  0.22739601  0.48702842    -0.13200
C422        C  0.33498711  0.20820585  0.48930452     0.00500
C423        C  0.32786488  0.18192759  0.49275401    -0.11700
C424        C  0.30155714  0.17441694  0.49364138     0.03000
C425        C  0.28201368  0.19376787  0.49156042    -0.11100
H426        H  0.32088367  0.24765503  0.48361462     0.08600
H427        H  0.34301504  0.16707939  0.49425342     0.06100
H428        H  0.26160178  0.18817388  0.49276347     0.05900
O429        O  0.99704376  0.27761697  0.45242618    -0.73100
O430        O  0.99749528  0.27417809  0.53183554    -0.74100
O431        O  0.95748660  0.27545674  0.49240385    -0.62700
O432        O  0.03687430  0.27639091  0.49198630    -0.71100
O433        O  0.03554122  0.31990378  0.49368298    -0.70700
O434        O  0.95756689  0.31896555  0.49532599    -0.61900
O435        O  0.99706441  0.31772735  0.53324495    -0.74400
O436        O  0.99526052  0.32112813  0.45490734    -0.73200
Cu437      Cu  0.99728346  0.27429895  0.49199954     1.04600
Cu438      Cu  0.99643107  0.32084899  0.49424627     1.04300
C439        C  0.99570636  0.30002220  0.44125309     0.93100
C440        C  0.99700161  0.29564160  0.54500599     0.92200
C441        C  0.94514627  0.29724445  0.49470404     0.84400
C442        C  0.04862174  0.29853383  0.49341127     0.90700
O443        O  0.31215056  0.04871425  0.49614235    -0.73100
O444        O  0.31052707  0.97037066  0.48584376    -0.74100
O445        O  0.31107221  0.01446399  0.45195909    -0.62700
O446        O  0.31187448  0.00451068  0.52988287    -0.71100
O447        O  0.26862256  0.00832229  0.53112392    -0.70700
O448        O  0.26771802  0.01191119  0.45170997    -0.61900
O449        O  0.26724010  0.97058145  0.48951240    -0.74400
O450        O  0.26882619  0.04979137  0.49344466    -0.73200
Cu451      Cu  0.31287697  0.00950116  0.49093292     1.04600
Cu452      Cu  0.26651592  0.01021672  0.49145706     1.04300
C453        C  0.29073105  0.06167365  0.49591710     0.93100
C454        C  0.28875533  0.95808304  0.48668776     0.92200
C455        C  0.28942439  0.01406304  0.43941410     0.84400
C456        C  0.29053655  0.00514964  0.54285857     0.90700
C457        C  0.21340898  0.22203759  0.98765103     0.03000
C458        C  0.18684850  0.22931804  0.98935364    -0.13200
C459        C  0.16725506  0.21012027  0.99093570     0.00500
C460        C  0.17430980  0.18351984  0.98981358    -0.11700
C461        C  0.20062474  0.17577007  0.98865060     0.03000
C462        C  0.22013023  0.19514839  0.98700433    -0.11100
H463        H  0.18146680  0.24990225  0.98999538     0.08600
H464        H  0.15916844  0.16863457  0.99050973     0.06100
H465        H  0.24052601  0.18935394  0.98645381     0.05900
C466        C  0.29516448  0.30106235  0.98772531     0.03000
C467        C  0.28894964  0.32794096  0.98656560    -0.13200
C468        C  0.30869348  0.34700675  0.98859154     0.00500
C469        C  0.33459053  0.33895108  0.99270154    -0.11700
C470        C  0.34135534  0.31222951  0.99315224     0.03000
C471        C  0.32142406  0.29331834  0.99081380    -0.11100
H472        H  0.26877634  0.33398518  0.98396412     0.08600
H473        H  0.34966566  0.35364964  0.99544187     0.06100
H474        H  0.32619105  0.27262621  0.99207250     0.05900
C475        C  0.20471321  0.00751106  0.20365243     0.03000
C476        C  0.21224374  0.00764770  0.17708156    -0.13200
C477        C  0.19335918  0.00808211  0.15715031     0.00500
C478        C  0.16681439  0.00727381  0.16388460    -0.11700
C479        C  0.15875179  0.00763077  0.19022884     0.03000
C480        C  0.17790443  0.00775967  0.21012123    -0.11100
H481        H  0.23280839  0.00814629  0.17193724     0.08600
H482        H  0.15227050  0.00691162  0.14836833     0.06100
H483        H  0.17206002  0.00901935  0.23052114     0.05900
C484        C  0.28782424  0.01219740  0.28114330     0.03000
C485        C  0.28230442  0.01285907  0.30819851    -0.13200
C486        C  0.30261671  0.01500927  0.32670414     0.00500
C487        C  0.32862049  0.01573733  0.31785489    -0.11700
C488        C  0.33449030  0.01519582  0.29095575     0.03000
C489        C  0.31404423  0.01304828  0.27267047    -0.11100
H490        H  0.26215807  0.01257509  0.31479722     0.08600
H491        H  0.34447989  0.01673586  0.33197944     0.06100
H492        H  0.31851267  0.01240575  0.25188270     0.05900
C493        C  0.98876274  0.21703016  0.20426591     0.03000
C494        C  0.99073974  0.22395775  0.17764118    -0.13200
C495        C  0.99109732  0.20454100  0.15800349     0.00500
C496        C  0.98947550  0.17805506  0.16529696    -0.11700
C497        C  0.98895990  0.17074155  0.19175047     0.03000
C498        C  0.98794753  0.19029395  0.21124856    -0.11100
H499        H  0.99263723  0.24444409  0.17233109     0.08600
H500        H  0.98986912  0.16285188  0.15031058     0.06100
H501        H  0.98772304  0.18474588  0.23175877     0.05900
C502        C  0.99168896  0.34612943  0.29329675     0.03000
C503        C  0.99140110  0.32573622  0.27477001    -0.13200
C504        C  0.99156115  0.29943346  0.28295527     0.00500
C505        C  0.99142154  0.29369129  0.30997740    -0.11700
C506        C  0.99138210  0.31409571  0.32870886     0.03000
C507        C  0.99186282  0.34022937  0.32009704    -0.11100
H508        H  0.99090090  0.33035441  0.25402061     0.08600
H509        H  0.99122322  0.27342567  0.31637288     0.06100
H510        H  0.99240466  0.35614512  0.33431458     0.05900
O511        O  0.03423268  0.00747647  0.22459827    -0.73100
O512        O  0.95490370  0.00526624  0.22511457    -0.74100
O513        O  0.99557740  0.96672104  0.22487020    -0.62700
O514        O  0.99323070  0.04598564  0.22515634    -0.71100
O515        O  0.99256546  0.04576144  0.18154230    -0.70700
O516        O  0.99653424  0.96707472  0.18131137    -0.61900
O517        O  0.95531913  0.00413346  0.18154184    -0.74400
O518        O  0.03328173  0.00845366  0.18108302    -0.73200
Cu519      Cu  0.99450383  0.00638467  0.22652473     1.04600
Cu520      Cu  0.99437356  0.00637171  0.17992020     1.04300
C521        C  0.04616399  0.00872039  0.20254799     0.93100
C522        C  0.94273934  0.00377994  0.20318563     0.92200
C523        C  0.99676345  0.95447252  0.20292739     0.84400
C524        C  0.99242907  0.05827476  0.20334690     0.90700
O525        O  0.19015092  0.01370753  0.03278141    -0.73100
O526        O  0.19110657  0.01192758  0.95415086    -0.74100
O527        O  0.18823445  0.97374431  0.99449233    -0.62700
O528        O  0.19247036  0.05178525  0.99307305    -0.71100
O529        O  0.23587736  0.04996227  0.99303184    -0.70700
O530        O  0.23148037  0.97012875  0.99480470    -0.61900
O531        O  0.23444989  0.00890319  0.95441057    -0.74400
O532        O  0.23346639  0.01057779  0.03367136    -0.73200
Cu533      Cu  0.18908472  0.01284169  0.99353034     1.04600
Cu534      Cu  0.23543713  0.00983184  0.99397630     1.04300
C535        C  0.21155348  0.01219634  0.04565869     0.93100
C536        C  0.21284768  0.01043592  0.94185257     0.92200
C537        C  0.20877494  0.95955168  0.99553063     0.84400
C538        C  0.21460464  0.06331337  0.99291190     0.90700
O539        O  0.00598942  0.19868685  0.95565095    -0.73100
O540        O  0.00578367  0.19835492  0.03387459    -0.74100
O541        O  0.96689918  0.19577491  0.99510745    -0.62700
O542        O  0.04465592  0.20115851  0.99526972    -0.71100
O543        O  0.04209693  0.24469775  0.99501746    -0.70700
O544        O  0.96319848  0.23921915  0.99502600    -0.61900
O545        O  0.00225235  0.24180973  0.03470822    -0.74400
O546        O  0.00245030  0.24215170  0.95532736    -0.73200
Cu547      Cu  0.00590643  0.19706447  0.99487197     1.04600
Cu548      Cu  0.00240814  0.24358591  0.99499459     1.04300
C549        C  0.00456170  0.22027237  0.94308583     0.93100
C550        C  0.00392462  0.21985617  0.04671274     0.92200
C551        C  0.95275221  0.21642798  0.99571628     0.84400
C552        C  0.05572852  0.22360827  0.99538505     0.90700
C553        C  0.20585846  0.49965822  0.28264968     0.03000
C554        C  0.17979988  0.49194706  0.27707980    -0.13200
C555        C  0.16013686  0.49358118  0.29623606     0.00500
C556        C  0.16701129  0.49957952  0.32213932    -0.11700
C557        C  0.19297977  0.50489342  0.32887685     0.03000
C558        C  0.21188971  0.50643125  0.30902025    -0.11100
H559        H  0.17420310  0.48451331  0.25804531     0.08600
H560        H  0.15204164  0.50033878  0.33716864     0.06100
H561        H  0.23112057  0.51320266  0.31463563     0.05900
C562        C  0.28883363  0.50271130  0.20158066     0.03000
C563        C  0.31507295  0.49517876  0.20669717    -0.13200
C564        C  0.33478541  0.49823194  0.18780453     0.00500
C565        C  0.32779346  0.50487984  0.16213426    -0.11700
C566        C  0.30174910  0.51015808  0.15555534     0.03000
C567        C  0.28272936  0.51031015  0.17543793    -0.11100
H568        H  0.32081359  0.48651542  0.22505438     0.08600
H569        H  0.34274372  0.50577201  0.14710229     0.06100
H570        H  0.26338124  0.51665112  0.16989225     0.05900
O571        O  0.95882956  0.51408090  0.29948395    -0.73100
O572        O  0.03597253  0.50152174  0.30072453    -0.74100
O573        O  0.00367953  0.54658855  0.30155952    -0.62700
O574        O  0.99131607  0.46916177  0.29864384    -0.71100
O575        O  0.99465881  0.46964472  0.25513689    -0.70700
O576        O  0.00196413  0.54828751  0.25804139    -0.61900
O577        O  0.03747784  0.50504704  0.25736600    -0.74400
O578        O  0.95885071  0.51256800  0.25590020    -0.73200
Cu579      Cu  0.99738754  0.50782514  0.30158021     1.04600
Cu580      Cu  0.99823871  0.50898243  0.25501824     1.04300
C581        C  0.94655301  0.51478699  0.27764540     0.93100
C582        C  0.04902088  0.50150016  0.27935901     0.92200
C583        C  0.00445367  0.55973253  0.28029941     0.84400
C584        C  0.99164687  0.45714107  0.27659112     0.90700
O585        O  0.26557289  0.50823143  0.95123811    -0.73100
O586        O  0.26479425  0.51009246  0.03090701    -0.74100
O587        O  0.26239651  0.54883900  0.99058165    -0.62700
O588        O  0.26774383  0.46975875  0.99164945    -0.71100
O589        O  0.31106084  0.47288526  0.99168690    -0.70700
O590        O  0.30578182  0.55114998  0.99143799    -0.61900
O591        O  0.30810314  0.51305321  0.03076219    -0.74400
O592        O  0.30893388  0.51074534  0.95223080    -0.73200
Cu593      Cu  0.26353972  0.50916646  0.99105230     1.04600
Cu594      Cu  0.30989688  0.51211083  0.99151858     1.04300
C595        C  0.28760976  0.50838746  0.93933708     0.93100
C596        C  0.28651058  0.51213194  0.04331426     0.92200
C597        C  0.28343257  0.56237321  0.99157438     0.84400
C598        C  0.29031443  0.45892753  0.99139715     0.90700
O599        O  0.23040618  0.50957413  0.45271556    -0.73100
O600        O  0.23215558  0.51023881  0.53216025    -1.05300
O601        O  0.23120160  0.47008797  0.49245697    -0.62700
O602        O  0.23110654  0.54970829  0.49259012    -0.71100
O603        O  0.18771558  0.54909992  0.49343436    -0.70700
O604        O  0.18779233  0.47096553  0.49258194    -0.61900
O605        O  0.18871286  0.51031012  0.53258687    -0.74400
O606        O  0.18701176  0.51050623  0.45400965    -0.73200
Cu607      Cu  0.23282486  0.50986230  0.49248039     1.04600
Cu608      Cu  0.18639211  0.51013565  0.49325328     1.04300
C609        C  0.20830012  0.51037677  0.44091556     0.93100
C610        C  0.21056077  0.51062552  0.54480164     0.92200
C611        C  0.20922565  0.45807405  0.49196909     0.84400
C612        C  0.20915719  0.56184260  0.49282017     0.90700
O613        O  0.45973947  0.19809767  0.48761756    -0.73100
O614        O  0.53765054  0.19975815  0.49087459    -0.74100
O615        O  0.49742770  0.19807475  0.52859931    -0.62700
O616        O  0.50065148  0.19930936  0.45051479    -0.71100
O617        O  0.49942330  0.24295212  0.45106232    -0.70700
O618        O  0.49617107  0.24168875  0.53026413    -0.61900
O619        O  0.53707282  0.24335368  0.49238957    -0.74400
O620        O  0.45850239  0.24168093  0.48915462    -0.73200
Cu621      Cu  0.49881381  0.19734239  0.48943718     1.04600
Cu622      Cu  0.49770179  0.24401644  0.49076370     1.04300
C623        C  0.44680674  0.21956354  0.48765188     0.93100
C624        C  0.54970729  0.22170230  0.49177697     0.92200
C625        C  0.49679951  0.21945363  0.54178306     0.84400
C626        C  0.50087780  0.22118544  0.43846793     0.90700
O627        O  0.50177435  0.46570032  0.22313245    -0.73100
O628        O  0.49513464  0.54501981  0.22440649    -0.74100
O629        O  0.45888744  0.50194814  0.22391390    -0.62700
O630        O  0.53818343  0.50843536  0.22353625    -0.71100
O631        O  0.53682049  0.50926511  0.18000057    -0.70700
O632        O  0.45931714  0.50082718  0.18037760    -0.61900
O633        O  0.49334932  0.54454422  0.18089541    -0.74400
O634        O  0.50242935  0.46643460  0.17955456    -0.73200
Cu635      Cu  0.49852451  0.50535222  0.22537715     1.04600
Cu636      Cu  0.49799531  0.50542483  0.17881274     1.04300
C637        C  0.50313369  0.45366980  0.20103630     0.93100
C638        C  0.49270308  0.55719983  0.20262552     0.92200
C639        C  0.44677222  0.49970348  0.20198170     0.84400
C640        C  0.54993039  0.50906360  0.20136201     0.90700
C641        C  0.70821760  0.50871975  0.19893517     0.03000
C642        C  0.68134858  0.50806386  0.20511226    -0.13200
C643        C  0.66233924  0.50700332  0.18509674     0.00500
C644        C  0.67076196  0.50728837  0.15880551    -0.11700
C645        C  0.69742429  0.50696781  0.15235696     0.03000
C646        C  0.71607548  0.50797758  0.17249855    -0.11100
H647        H  0.67533109  0.50824812  0.22549121     0.08600
H648        H  0.65652252  0.50773737  0.14304362     0.06100
H649        H  0.73671301  0.50756856  0.16764471     0.05900
C650        C  0.78858129  0.51398409  0.27928463     0.03000
C651        C  0.78178130  0.51271095  0.30602504    -0.13200
C652        C  0.80123849  0.51255302  0.32545200     0.00500
C653        C  0.82757610  0.51436507  0.31804070    -0.11700
C654        C  0.83479275  0.51556040  0.29152630     0.03000
C655        C  0.81518630  0.51517310  0.27219237    -0.11100
H656        H  0.76138972  0.51155762  0.31170733     0.08600
H657        H  0.84261882  0.51455603  0.33307533     0.06100
H658        H  0.82062229  0.51585375  0.25166200     0.05900
O659        O  0.69294005  0.49862836  0.02813158    -0.73100
O660        O  0.69222881  0.49897689  0.94959216    -0.74100
O661        O  0.69546859  0.46006436  0.98829995    -0.62700
O662        O  0.68900466  0.53805909  0.98935300    -0.71100
O663        O  0.73212154  0.54261006  0.98763219    -0.70700
O664        O  0.73877968  0.46266552  0.98973803    -0.61900
O665        O  0.73559359  0.50179376  0.94909120    -0.74400
O666        O  0.73603198  0.50406454  0.02849596    -0.73200
Cu667      Cu  0.69102478  0.49886811  0.98888857     1.04600
Cu668      Cu  0.73726453  0.50291965  0.98875788     1.04300
C669        C  0.71441179  0.50123320  0.04074875     0.93100
C670        C  0.71375757  0.50002095  0.93693758     0.92200
C671        C  0.71779285  0.44888624  0.98877939     0.84400
C672        C  0.70918701  0.55277593  0.98837041     0.90700
C673        C  0.79508574  0.20976873  0.99333392     0.03000
C674        C  0.78848454  0.18301334  0.99500562    -0.13200
C675        C  0.80809089  0.16368830  0.99641273     0.00500
C676        C  0.83439515  0.17152067  0.99553425    -0.11700
C677        C  0.84136118  0.19817465  0.99515642     0.03000
C678        C  0.82154881  0.21723385  0.99408745    -0.11100
H679        H  0.76807099  0.17729920  0.99528333     0.08600
H680        H  0.84966929  0.15675673  0.99520052     0.06100
H681        H  0.82661392  0.23789080  0.99438362     0.05900
C682        C  0.71471156  0.28996267  0.98900973     0.03000
C683        C  0.68796152  0.28335841  0.98793586    -0.13200
C684        C  0.66875309  0.30306833  0.98698194     0.00500
C685        C  0.67666122  0.32947789  0.98789239    -0.11700
C686        C  0.70323707  0.33648020  0.98775179     0.03000
C687        C  0.72222088  0.31657947  0.98856508    -0.11100
H688        H  0.68217239  0.26289443  0.98723841     0.08600
H689        H  0.66197651  0.34483322  0.98838010     0.06100
H690        H  0.74278330  0.32176278  0.98870571     0.05900
C691        C  0.78436010  0.99834374  0.20740559     0.03000
C692        C  0.81131950  0.99886341  0.21318036    -0.13200
C693        C  0.82993629  0.99826222  0.19282499     0.00500
C694        C  0.82109192  0.99688553  0.16674047    -0.11700
C695        C  0.79433586  0.99581949  0.16072374     0.03000
C696        C  0.77600398  0.99711087  0.18111633    -0.11100
H697        H  0.81767972  0.99934776  0.23347319     0.08600
H698        H  0.83516667  0.99691448  0.15083701     0.06100
H699        H  0.75528431  0.99691970  0.17656586     0.05900
C700        C  0.70686104  0.00494323  0.28997679     0.03000
C701        C  0.68019381  0.00381788  0.28318177    -0.13200
C702        C  0.66075259  0.00454021  0.30269299     0.00500
C703        C  0.66850138  0.00593093  0.32914380    -0.11700
C704        C  0.69505171  0.00594527  0.33636920     0.03000
C705        C  0.71419425  0.00573898  0.31660199    -0.11100
H706        H  0.67469654  0.00197626  0.26270519     0.08600
H707        H  0.65371302  0.00667558  0.34436175     0.06100
H708        H  0.73473316  0.00515590  0.32186609     0.05900
O709        O  0.80723527  0.03744358  0.00026223    -0.73100
O710        O  0.80082433  0.95938797  0.99801999    -0.74100
O711        O  0.80655568  0.99881772  0.96002142    -0.62700
O712        O  0.80145812  0.99717285  0.03797662    -0.71100
O713        O  0.75826228  0.00133104  0.03580361    -0.70700
O714        O  0.76345261  0.00316837  0.95662264    -0.61900
O715        O  0.75757148  0.96273875  0.99478982    -0.74400
O716        O  0.76414515  0.04167222  0.99713197    -0.73200
Cu717      Cu  0.80544840  0.99817403  0.99915078     1.04600
Cu718      Cu  0.75925748  0.00240286  0.99600620     1.04300
C719        C  0.78689071  0.05196420  0.99885119     0.93100
C720        C  0.77832125  0.94875196  0.99611344     0.92200
C721        C  0.78598919  0.00105259  0.94596264     0.84400
C722        C  0.77921975  0.99844696  0.04926114     0.90700
C723        C  0.70720754  0.21940653  0.49696185     0.03000
C724        C  0.68069047  0.22667231  0.49600336    -0.13200
C725        C  0.66115087  0.20734241  0.49564529     0.00500
C726        C  0.66834055  0.18086964  0.49758129    -0.11700
C727        C  0.69465441  0.17324597  0.49778714     0.03000
C728        C  0.71412354  0.19267351  0.49772038    -0.11100
H729        H  0.67538083  0.24723524  0.49466048     0.08600
H730        H  0.65325154  0.16593445  0.49832927     0.06100
H731        H  0.73457511  0.18707312  0.49777492     0.05900
C732        C  0.78700906  0.29963453  0.49620120     0.03000
C733        C  0.81350079  0.29224660  0.49701327    -0.13200
C734        C  0.83320437  0.31137062  0.49571977     0.00500
C735        C  0.82610921  0.33786685  0.49327751    -0.11700
C736        C  0.79977982  0.34549934  0.49168935     0.03000
C737        C  0.78020776  0.32626391  0.49356561    -0.11100
H738        H  0.81869605  0.27172177  0.49909950     0.08600
H739        H  0.84127872  0.35270943  0.49242934     0.06100
H740        H  0.75977742  0.33187484  0.49246035     0.05900
O741        O  0.69169490  0.01345119  0.54039015    -0.73100
O742        O  0.68966002  0.00411028  0.46235398    -0.74100
O743        O  0.69220544  0.96980812  0.50596351    -0.62700
O744        O  0.68889060  0.04742292  0.49715890    -0.71100
O745        O  0.73223082  0.04980992  0.49825925    -0.70700
O746        O  0.73541568  0.97056668  0.50198618    -0.61900
O747        O  0.73279721  0.00820506  0.46031260    -0.74400
O748        O  0.73512240  0.01235202  0.53954217    -0.73200
Cu749      Cu  0.68917293  0.00861178  0.50147888     1.04600
Cu750      Cu  0.73549750  0.01028022  0.49995410     1.04300
C751        C  0.71367568  0.01411883  0.55231780     0.93100
C752        C  0.71069881  0.00512062  0.44888976     0.92200
C753        C  0.71411383  0.95778449  0.50512825     0.84400
C754        C  0.70985356  0.06097678  0.49678774     0.90700
O755        O  0.80965759  0.50746633  0.52775185    -0.73100
O756        O  0.80818734  0.50989043  0.44964147    -0.74100
O757        O  0.80974763  0.54822940  0.48977152    -0.62700
O758        O  0.80801869  0.46975412  0.48710431    -0.71100
O759        O  0.76460580  0.47053343  0.48835636    -0.70700
O760        O  0.76634393  0.54963072  0.49124969    -0.61900
O761        O  0.76475841  0.51164929  0.44990821    -0.74400
O762        O  0.76623730  0.50888767  0.52914974    -0.73200
Cu763      Cu  0.81036006  0.50889158  0.48857882     1.04600
Cu764      Cu  0.76389867  0.51024739  0.48967734     1.04300
C765        C  0.78834434  0.50725977  0.54077558     0.93100
C766        C  0.78643117  0.51087987  0.43738506     0.92200
C767        C  0.78843814  0.56132049  0.49083114     0.84400
C768        C  0.78612036  0.45771469  0.48741177     0.90700
C769        C  0.77603474  0.38620972  0.50576350    -0.26500
C770        C  0.79325079  0.37372442  0.48819804    -0.14500
C771        C  0.80575436  0.38873383  0.46862777     0.36100
C772        C  0.80244994  0.41609212  0.46836184    -0.25900
C773        C  0.78619051  0.42871929  0.48661862    -0.15200
C774        C  0.77224504  0.41362621  0.50507589     0.37200
N775        N  0.75567382  0.42631119  0.52407785    -0.89400
H776        H  0.76638898  0.37469251  0.52073080     0.18300
H777        H  0.81283754  0.42772082  0.45397481     0.18300
N778        N  0.82201958  0.37611270  0.44929535    -0.88400
H779        H  0.74800644  0.41254995  0.53714050     0.35700
H780        H  0.73970106  0.43419617  0.51397935     0.40800
H781        H  0.81005465  0.36370907  0.43810203     0.40400
H782        H  0.82984072  0.38991670  0.43636809     0.35300
C783        C  0.68789618  0.12926646  0.47762088    -0.26500
C784        C  0.70104833  0.14483329  0.49628798    -0.14500
C785        C  0.71848000  0.13277142  0.51396809     0.36100
C786        C  0.72205132  0.10540997  0.51302879    -0.25900
C787        C  0.70786000  0.08980781  0.49521972    -0.15200
C788        C  0.69074714  0.10187713  0.47715372     0.37200
N789        N  0.67662911  0.08639411  0.45813805    -0.89400
H790        H  0.67476830  0.13852050  0.46371938     0.18300
H791        H  0.73502975  0.09619920  0.52709778     0.18300
N792        N  0.73160593  0.14801807  0.53367018    -0.88400
H793        H  0.66674787  0.09854004  0.44491505     0.35700
H794        H  0.66210589  0.07605900  0.46813130     0.40800
H795        H  0.75174664  0.14525970  0.53136183     0.40400
H796        H  0.72630615  0.14070541  0.55205427     0.35300
C797        C  0.73048737  0.25651499  0.51844409    -0.26500
C798        C  0.72769235  0.23985664  0.49660938    -0.14500
C799        C  0.74419766  0.24322143  0.47468267     0.36100
C800        C  0.76340825  0.26275133  0.47521956    -0.25900
C801        C  0.76643180  0.27928923  0.49712949    -0.15200
C802        C  0.74971956  0.27615207  0.51908190     0.37200
N803        N  0.75211706  0.29182172  0.54254159    -0.89400
H804        H  0.71781944  0.25399368  0.53529809     0.18300
H805        H  0.77594657  0.26524857  0.45826438     0.18300
N806        N  0.74135664  0.22762652  0.45135339    -0.88400
H807        H  0.73508172  0.30306472  0.54432153     0.35700
H808        H  0.76776191  0.30492165  0.54155149     0.40800
H809        H  0.72214870  0.22958129  0.44453673     0.40400
H810        H  0.74465396  0.20795049  0.45601401     0.35300
C811        C  0.68940445  0.98535336  0.38013554    -0.26500
C812        C  0.70206342  0.00425963  0.36471456    -0.14500
C813        C  0.71967031  0.02183965  0.37690413     0.36100
C814        C  0.72321716  0.02105013  0.40432995    -0.25900
C815        C  0.70910252  0.00326237  0.41987776    -0.15200
C816        C  0.69252156  0.98476637  0.40751721     0.37200
N817        N  0.67921808  0.96513606  0.42269145    -0.89400
H818        H  0.67641912  0.97131864  0.37076876     0.18300
H819        H  0.73612875  0.03520657  0.41362015     0.18300
N820        N  0.73306895  0.04123264  0.36173875    -0.88400
H821        H  0.66999744  0.95151471  0.41033945     0.35700
H822        H  0.66422017  0.97448131  0.43306270     0.40800
H823        H  0.75317431  0.03860482  0.36449359     0.40400
H824        H  0.72805267  0.05976484  0.36911576     0.35300
C825        C  0.76966311  0.01280742  0.12185862    -0.26500
C826        C  0.78613386  0.99365617  0.13284126    -0.14500
C827        C  0.79690844  0.97398169  0.11651250     0.36100
C828        C  0.79331082  0.97546120  0.08928440    -0.25900
C829        C  0.77842670  0.99565403  0.07806963    -0.15200
C830        C  0.76549169  0.01386540  0.09450070     0.37200
N831        N  0.74969170  0.03431194  0.08330204    -0.89400
H832        H  0.76115309  0.02771500  0.13448297     0.18300
H833        H  0.80267095  0.96108854  0.07662105     0.18300
N834        N  0.81200800  0.95295559  0.12767701    -0.88400
H835        H  0.74250043  0.04672321  0.09803994     0.35700
H836        H  0.73337070  0.02539106  0.07466882     0.40800
H837        H  0.79949868  0.94205065  0.13963007     0.40400
H838        H  0.81865794  0.94017689  0.11298458     0.35300
C839        C  0.76244678  0.02272308  0.24368562    -0.26500
C840        C  0.76480955  0.99954670  0.22883453    -0.14500
C841        C  0.74820249  0.97808819  0.23440897     0.36100
C842        C  0.72950278  0.98032764  0.25436974    -0.25900
C843        C  0.72706703  0.00352062  0.26916703    -0.15200
C844        C  0.74370423  0.02496575  0.26364241     0.37200
N845        N  0.74142658  0.04946055  0.27741996    -0.89400
H846        H  0.77498539  0.03932711  0.23943748     0.18300
H847        H  0.71688931  0.96375814  0.25852533     0.18300
N848        N  0.75037995  0.95359329  0.22060625    -0.88400
H849        H  0.74498093  0.04623975  0.29734587     0.35700
H850        H  0.72225921  0.05632283  0.27526267     0.40800
H851        H  0.76958767  0.94677466  0.22252594     0.40400
H852        H  0.74651582  0.95672231  0.20073080     0.35300
C853        C  0.78158462  0.12464098  0.98243700    -0.26500
C854        C  0.80132594  0.13528467  0.99854188    -0.14500
C855        C  0.81487775  0.11852977  0.01600837     0.36100
C856        C  0.80949715  0.09150865  0.01580306    -0.25900
C857        C  0.79016343  0.08083468  0.99938103    -0.15200
C858        C  0.77562889  0.09764064  0.98287698     0.37200
N859        N  0.75586404  0.08713785  0.96567161    -0.89400
H860        H  0.77117315  0.13733262  0.96898055     0.18300
H861        H  0.82037422  0.07864421  0.02873980     0.18300
N862        N  0.83393624  0.12898807  0.03404708    -0.88400
H863        H  0.74831004  0.10186215  0.95359130     0.35700
H864        H  0.74030655  0.08088454  0.97737145     0.40800
H865        H  0.82412215  0.14152104  0.04705032     0.40400
H866        H  0.84219928  0.11404380  0.04536322     0.35300
C867        C  0.75413512  0.23035382  0.01030948    -0.26500
C868        C  0.77428327  0.23002803  0.99162247    -0.14500
C869        C  0.77441909  0.24912228  0.97165863     0.36100
C870        C  0.75490900  0.26854832  0.97112061    -0.25900
C871        C  0.73490858  0.26903166  0.98998910    -0.15200
C872        C  0.73452770  0.24965567  0.00966104     0.37200
N873        N  0.71465147  0.24995723  0.02945119    -0.89400
H874        H  0.75387969  0.21583398  0.02579322     0.18300
H875        H  0.75518713  0.28312233  0.95568650     0.18300
N876        N  0.79396748  0.24843178  0.95153568    -0.88400
H877        H  0.72380149  0.25152447  0.04776562     0.35700
H878        H  0.70482440  0.23195984  0.02871326     0.40800
H879        H  0.80389273  0.26638563  0.95181095     0.40400
H880        H  0.78450309  0.24661251  0.93340564     0.35300
C881        C  0.70247208  0.40800330  0.96776420    -0.26500
C882        C  0.71835417  0.41980877  0.98692954    -0.14500
C883        C  0.73162286  0.40375398  0.00514281     0.36100
C884        C  0.72749361  0.37626452  0.00452620    -0.25900
C885        C  0.71056863  0.36473517  0.98591567    -0.15200
C886        C  0.69896386  0.38075827  0.96661053     0.37200
N887        N  0.68321192  0.36929121  0.94612259    -0.89400
H888        H  0.69214331  0.42018950  0.95388335     0.18300
H889        H  0.73654554  0.36396689  0.01927563     0.18300
N890        N  0.74768158  0.41546617  0.02519456    -0.88400
H891        H  0.67592550  0.38377202  0.93359761     0.35700
H892        H  0.69540719  0.35728108  0.93476946     0.40800
H893        H  0.76377151  0.42403217  0.01593500     0.40400
H894        H  0.75516484  0.40102120  0.03764931     0.35300
C895        C  0.77768048  0.52860224  0.36550441    -0.26500
C896        C  0.79452265  0.51019851  0.35365919    -0.14500
C897        C  0.80646014  0.49071081  0.36922012     0.36100
C898        C  0.80280029  0.49110121  0.39645821    -0.25900
C899        C  0.78699786  0.51014700  0.40847965    -0.15200
C900        C  0.77386960  0.52884233  0.39292626     0.37200
N901        N  0.75773694  0.54858063  0.40507384    -0.89400
H902        H  0.76849203  0.54351149  0.35349637     0.18300
H903        H  0.81256039  0.47656508  0.40849493     0.18300
N904        N  0.82251466  0.47077028  0.35726927    -0.88400
H905        H  0.74957013  0.56086420  0.39084868     0.35700
H906        H  0.76984959  0.56038538  0.41674980     0.40800
H907        H  0.81047753  0.45950055  0.34500324     0.40400
H908        H  0.82998517  0.45803109  0.37146929     0.35300
C909        C  0.69493768  0.48321399  0.10980007    -0.26500
C910        C  0.70524317  0.50425190  0.12440184    -0.14500
C911        C  0.72132960  0.52288615  0.11180876     0.36100
C912        C  0.72558050  0.52079015  0.08449844    -0.25900
C913        C  0.71371345  0.50067318  0.06974067    -0.15200
C914        C  0.69912203  0.48115901  0.08266033     0.37200
N915        N  0.68835755  0.45947573  0.06801181    -0.89400
H916        H  0.68311287  0.46858135  0.11960698     0.18300
H917        H  0.73696363  0.53563796  0.07450714     0.18300
N918        N  0.73235007  0.54436012  0.12654046    -0.88400
H919        H  0.67810187  0.44682288  0.08040804     0.35700
H920        H  0.70401171  0.44867023  0.06034542     0.40800
H921        H  0.71687162  0.55593899  0.13339436     0.40400
H922        H  0.74361747  0.55632735  0.11435902     0.35300
C923        C  0.74756314  0.52971275  0.21885733    -0.26500
C924        C  0.72833105  0.51006611  0.21996893    -0.14500
C925        C  0.72890508  0.49174328  0.24066244     0.36100
C926        C  0.74852466  0.49366550  0.25995161    -0.25900
C927        C  0.76783990  0.51325032  0.25880076    -0.15200
C928        C  0.76722635  0.53160487  0.23809886     0.37200
N929        N  0.78633022  0.55228292  0.23687474    -0.89400
H930        H  0.74703124  0.54383173  0.20301144     0.18300
H931        H  0.74914415  0.47939470  0.27565212     0.18300
N932        N  0.70998889  0.47088239  0.24164609    -0.88400
H933        H  0.78321310  0.56400958  0.22036448     0.35700
H934        H  0.78362983  0.56436815  0.25330656     0.40800
H935        H  0.71294757  0.45889158  0.22518487     0.40400
H936        H  0.71312037  0.45910493  0.25811417     0.35300
C937        C  0.58955532  0.49145803  0.18010033    -0.26500
C938        C  0.57885342  0.50777189  0.19956787    -0.14500
C939        C  0.59578350  0.52209273  0.21619719     0.36100
C940        C  0.62304354  0.52121609  0.21162757    -0.25900
C941        C  0.63370485  0.50569956  0.19125051    -0.15200
C942        C  0.61664754  0.48960546  0.17627864     0.37200
N943        N  0.62685599  0.47111107  0.15745066    -0.89400
H944        H  0.57660268  0.47963707  0.16800187     0.18300
H945        H  0.63588023  0.53333322  0.22350861     0.18300
N946        N  0.58529669  0.53794193  0.23710656    -0.88400
H947        H  0.61172205  0.46087317  0.14810136     0.35700
H948        H  0.63782802  0.45721762  0.16776163     0.40800
H949        H  0.57430604  0.55298803  0.22858256     0.40400
H950        H  0.60038136  0.54699241  0.24767189     0.35300
C951        C  0.59056359  0.20383183  0.47375353    -0.26500
C952        C  0.57849716  0.22144190  0.49111748    -0.14500
C953        C  0.59400087  0.23696460  0.50812476     0.36100
C954        C  0.62129418  0.23291794  0.50875219    -0.25900
C955        C  0.63312611  0.21410414  0.49232764    -0.15200
C956        C  0.61764238  0.20039160  0.47386880     0.37200
N957        N  0.62939383  0.18286440  0.45518267    -0.89400
H958        H  0.57882410  0.19245608  0.46006613     0.18300
H959        H  0.63320312  0.24370901  0.52272671     0.18300
N960        N  0.58194482  0.25560273  0.52561376    -0.88400
H961        H  0.62451167  0.18933110  0.43635004     0.35700
H962        H  0.62123106  0.16421855  0.45771418     0.40800
H963        H  0.57411956  0.27064970  0.51413105     0.40400
H964        H  0.59602575  0.26440331  0.53769651     0.35300
C965        C  0.90223528  0.49994895  0.26364033    -0.26500
C966        C  0.91783935  0.51759348  0.27798673    -0.14500
C967        C  0.90582033  0.53614925  0.29460380     0.36100
C968        C  0.87859664  0.53595406  0.29771288    -0.25900
C969        C  0.86298211  0.51731440  0.28464716    -0.15200
C970        C  0.87492386  0.49948550  0.26703526     0.37200
N971        N  0.85962925  0.47998624  0.25369245    -0.89400
H972        H  0.91137715  0.48550747  0.25090636     0.18300
H973        H  0.86965183  0.55006645  0.31094627     0.18300
N974        N  0.92128242  0.55519644  0.30842470    -0.88400
H975        H  0.86243596  0.48229982  0.23350576     0.35700
H976        H  0.86677072  0.46148772  0.25893225     0.40800
H977        H  0.91780482  0.55302645  0.32852264     0.40400
H978        H  0.91486386  0.57388412  0.30292867     0.35300
C979        C  0.27535371  0.49807222  0.11588299    -0.26500
C980        C  0.29457521  0.51415250  0.12749021    -0.14500
C981        C  0.30876876  0.53167067  0.11155467     0.36100
C982        C  0.30528210  0.53096597  0.08419453    -0.25900
C983        C  0.28722775  0.51378584  0.07238910    -0.15200
C984        C  0.27145543  0.49776423  0.08845074     0.37200
N985        N  0.25242101  0.48044860  0.07684764    -0.89400
H986        H  0.26432132  0.48471346  0.12811061     0.18300
H987        H  0.31689268  0.54380052  0.07193392     0.18300
N988        N  0.32689227  0.54989078  0.12325419    -0.88400
H989        H  0.24237825  0.47013665  0.09139040     0.35700
H990        H  0.26252457  0.46646061  0.06568047     0.40800
H991        H  0.31612847  0.56268263  0.13519455     0.40400
H992        H  0.33574879  0.56142729  0.10885291     0.35300
C993        C  0.37910834  0.48005518  0.17839303    -0.26500
C994        C  0.36299255  0.49538857  0.19465107    -0.14500
C995        C  0.37447642  0.51011694  0.21531297     0.36100
C996        C  0.40188253  0.50993614  0.21853255    -0.25900
C997        C  0.41801229  0.49601279  0.20106033    -0.15200
C998        C  0.40642726  0.48021166  0.18133359     0.37200
N999        N  0.42252579  0.46465458  0.16410218    -0.89400
H1000       H  0.37032977  0.46845453  0.16280690     0.18300
H1001       H  0.41076412  0.52197754  0.23371681     0.18300
N1002       N  0.35846018  0.52624693  0.23207742    -0.88400
H1003       H  0.41098221  0.45434430  0.15050494     0.35700
H1004       H  0.43201293  0.45059553  0.17552451     0.40800
H1005       H  0.35015583  0.54096662  0.22048499     0.40400
H1006       H  0.36989621  0.53575549  0.24625620     0.35300
C1007       C  0.08735003  0.47968173  0.29956107    -0.26500
C1008       C  0.07761502  0.49707381  0.28058950    -0.14500
C1009       C  0.09536517  0.51095998  0.26457989     0.36100
C1010       C  0.12242500  0.50822812  0.26901719    -0.25900
C1011       C  0.13204774  0.49184210  0.28894757    -0.15200
C1012       C  0.11429925  0.47679298  0.30369553     0.37200
N1013       N  0.12358076  0.45870538  0.32305084    -0.89400
H1014       H  0.07391201  0.46850815  0.31157799     0.18300
H1015       H  0.13603483  0.51994033  0.25773983     0.18300
N1016       N  0.08595565  0.52901763  0.24511414    -0.88400
H1017       H  0.11661038  0.44001266  0.31812909     0.35700
H1018       H  0.11548691  0.46402994  0.34116021     0.40800
H1019       H  0.07726137  0.51794324  0.23013813     0.40400
H1020       H  0.10156080  0.53899761  0.23642911     0.35300
C1021       C  0.18538211  0.52633426  0.37208688    -0.26500
C1022       C  0.19994863  0.50856346  0.35694341    -0.14500
C1023       C  0.21905592  0.49272458  0.36925844     0.36100
C1024       C  0.22256117  0.49449292  0.39667326    -0.25900
C1025       C  0.20691018  0.51130166  0.41190667    -0.15200
C1026       C  0.18873328  0.52791681  0.39935736     0.37200
N1027       N  0.17411392  0.54674244  0.41440025    -0.89400
H1028       H  0.17104711  0.53879004  0.36257853     0.18300
H1029       H  0.23658034  0.48179494  0.40631667     0.18300
N1030       N  0.23396327  0.47413082  0.35408562    -0.88400
H1031       H  0.16122949  0.55719093  0.40237334     0.35700
H1032       H  0.18774745  0.56032924  0.42143009     0.40800
H1033       H  0.22093109  0.46013569  0.34660558     0.40400
H1034       H  0.24713145  0.46401813  0.36608656     0.35300
C1035       C  0.25337027  0.49911941  0.26863774    -0.26500
C1036       C  0.22674116  0.50051904  0.26153341    -0.14500
C1037       C  0.22102860  0.50359623  0.23447123     0.36100
C1038       C  0.24116454  0.50239805  0.21577337    -0.25900
C1039       C  0.26789485  0.50226077  0.22286273    -0.15200
C1040       C  0.27365699  0.50231160  0.25025551     0.37200
N1041       N  0.29973357  0.50685147  0.25985011    -0.89400
H1042       H  0.25892038  0.49624028  0.28886367     0.18300
H1043       H  0.23510843  0.50218349  0.19550092     0.18300
N1044       N  0.19504933  0.50909910  0.22546281    -0.88400
H1045       H  0.30051192  0.50618952  0.28035397     0.35700
H1046       H  0.30498645  0.52593698  0.25452755     0.40800
H1047       H  0.19528296  0.52705613  0.21558986     0.40400
H1048       H  0.18963930  0.49446925  0.21202650     0.35300
C1049       C  0.90812059  0.22777673  0.98003013    -0.26500
C1050       C  0.92410579  0.21365626  0.99735048    -0.14500
C1051       C  0.91258178  0.19643122  0.01562577     0.36100
C1052       C  0.88538530  0.19276720  0.01527841    -0.25900
C1053       C  0.86947225  0.20551008  0.99676825    -0.15200
C1054       C  0.88095308  0.22363979  0.97938069     0.37200
N1055       N  0.86534227  0.23700032  0.96027196    -0.89400
H1056       H  0.91688193  0.24121358  0.96614612     0.18300
H1057       H  0.87657393  0.17939421  0.02919296     0.18300
N1058       N  0.92840336  0.18317165  0.03483938    -0.88400
H1059       H  0.87259156  0.23232504  0.94163819     0.35700
H1060       H  0.86764997  0.25720599  0.96322294     0.40800
H1061       H  0.93929179  0.16878146  0.02506370     0.40400
H1062       H  0.91659783  0.17311957  0.04819784     0.35300
C1063       C  0.87479581  0.98121676  0.18378768    -0.26500
C1064       C  0.85871579  0.99858858  0.19803914    -0.14500
C1065       C  0.87053519  0.01690611  0.21537481     0.36100
C1066       C  0.89805532  0.01758302  0.21773726    -0.25900
C1067       C  0.91393378  0.00100030  0.20246825    -0.15200
C1068       C  0.90216823  0.98237369  0.18563035     0.37200
N1069       N  0.91812656  0.96467234  0.17043394    -0.89400
H1070       H  0.86591685  0.96680852  0.17082412     0.18300
H1071       H  0.90719271  0.03190576  0.23061417     0.18300
N1072       N  0.85472311  0.03539454  0.22971135    -0.88400
H1073       H  0.90647863  0.95231094  0.15885657     0.35700
H1074       H  0.92821291  0.95260387  0.18356642     0.40800
H1075       H  0.84559539  0.04763343  0.21604399     0.40400
H1076       H  0.86642466  0.04747586  0.24151595     0.35300
C1077       C  0.96825993  0.38838153  0.29068625    -0.26500
C1078       C  0.99093931  0.37387019  0.28506367    -0.14500
C1079       C  0.01283308  0.38665103  0.27387146     0.36100
C1080       C  0.01160184  0.41375595  0.26935645    -0.25900
C1081       C  0.98944041  0.42841362  0.27636195    -0.15200
C1082       C  0.96714766  0.41548820  0.28638478     0.37200
N1083       N  0.94333177  0.42918878  0.29279347    -0.89400
H1084       H  0.95143299  0.37860497  0.29912354     0.18300
H1085       H  0.02874033  0.42372513  0.26180938     0.18300
N1086       N  0.03691463  0.37322147  0.26795377    -0.88400
H1087       H  0.92845536  0.42131174  0.28103111     0.35700
H1088       H  0.94439733  0.44904927  0.28796832     0.40800
H1089       H  0.03602476  0.35330594  0.27250868     0.40400
H1090       H  0.05150174  0.38127889  0.27994742     0.35300
C1091       C  0.01466318  0.19672312  0.11618562    -0.26500
C1092       C  0.99569929  0.21118332  0.12999711    -0.14500
C1093       C  0.98131260  0.23080162  0.11671013     0.36100
C1094       C  0.98538124  0.23451611  0.08961397    -0.25900
C1095       C  0.00318536  0.21876732  0.07565548    -0.15200
C1096       C  0.01856447  0.20028580  0.08924713     0.37200
N1097       N  0.03805459  0.18511753  0.07557410    -0.89400
H1098       H  0.02640092  0.18232787  0.12648654     0.18300
H1099       H  0.97367584  0.24878372  0.07910795     0.18300
N1100       N  0.96207282  0.24619532  0.13045067    -0.88400
H1101       H  0.04755057  0.17226037  0.08839077     0.35700
H1102       H  0.05226749  0.19819729  0.06881097     0.40800
H1103       H  0.94723887  0.23347038  0.13652309     0.40400
H1104       H  0.95338302  0.25980549  0.11784776     0.35300
C1105       C  0.97065029  0.12952325  0.21043987    -0.26500
C1106       C  0.99159605  0.14252630  0.19836073    -0.14500
C1107       C  0.01354374  0.12773141  0.18983347     0.36100
C1108       C  0.01314328  0.10034102  0.19191737    -0.25900
C1109       C  0.99183698  0.08723679  0.20309558    -0.15200
C1110       C  0.97046924  0.10203483  0.21297000     0.37200
N1111       N  0.94768736  0.08994480  0.22421190    -0.89400
H1112       H  0.95374840  0.14069750  0.21685691     0.18300
H1113       H  0.02977270  0.08913969  0.18481934     0.18300
N1114       N  0.03668766  0.13977875  0.17929272    -0.88400
H1115       H  0.94678480  0.09564397  0.24393489     0.35700
H1116       H  0.94882130  0.06948695  0.22385665     0.40800
H1117       H  0.03631511  0.16019977  0.18112855     0.40400
H1118       H  0.03753991  0.13520143  0.15927968     0.35300
C1119       C  0.00976635  0.25622107  0.22475973    -0.26500
C1120       C  0.98928469  0.23784682  0.22475032    -0.14500
C1121       C  0.96946356  0.23979481  0.24391641     0.36100
C1122       C  0.97092989  0.25966740  0.26315980    -0.25900
C1123       C  0.99140156  0.27802643  0.26313042    -0.15200
C1124       C  0.01102005  0.27631916  0.24372481     0.37200
N1125       N  0.03220132  0.29489814  0.24348809    -0.89400
H1126       H  0.02497012  0.25470997  0.21001727     0.18300
H1127       H  0.95568043  0.26131551  0.27783783     0.18300
N1128       N  0.94762939  0.22201367  0.24333181    -0.88400
H1129       H  0.04489458  0.29101484  0.22786345     0.35700
H1130       H  0.04300815  0.29228690  0.26073020     0.40800
H1131       H  0.93735376  0.22533870  0.22589261     0.40400
H1132       H  0.93469315  0.22617850  0.25869015     0.35300
C1133       C  0.21764541  0.99236205  0.11732071    -0.26500
C1134       C  0.20088761  0.01079597  0.12917619    -0.14500
C1135       C  0.19015438  0.03109550  0.11384887     0.36100
C1136       C  0.19468509  0.03159834  0.08677501    -0.25900
C1137       C  0.21040719  0.01256346  0.07462616    -0.15200
C1138       C  0.22263773  0.99310652  0.09008687     0.37200
N1139       N  0.23871425  0.97333583  0.07792388    -0.89400
H1140       H  0.22604458  0.97685218  0.12914663     0.18300
H1141       H  0.18558593  0.04683106  0.07508660     0.18300
N1142       N  0.17458426  0.05127708  0.12579820    -0.88400
H1143       H  0.24513490  0.95976658  0.09186666     0.35700
H1144       H  0.25548340  0.98262913  0.07082136     0.40800
H1145       H  0.15615499  0.05115671  0.11684863     0.40400
H1146       H  0.18339784  0.06937211  0.12194375     0.35300
C1147       C  0.09038869  0.99377683  0.21716639    -0.26500
C1148       C  0.07506970  0.01037419  0.20143040    -0.14500
C1149       C  0.08756428  0.02762571  0.18379313     0.36100
C1150       C  0.11493392  0.02723888  0.18167831    -0.25900
C1151       C  0.13024173  0.00950195  0.19615543    -0.15200
C1152       C  0.11779961  0.99296525  0.21444003     0.37200
N1153       N  0.13272575  0.97450565  0.22939284    -0.89400
H1154       H  0.08096417  0.98050490  0.23076565     0.18300
H1155       H  0.12438300  0.04048416  0.16806886     0.18300
N1156       N  0.07252104  0.04582233  0.16837517    -0.88400
H1157       H  0.12569859  0.95566660  0.22518142     0.35700
H1158       H  0.12942641  0.97833709  0.24930436     0.40800
H1159       H  0.06297046  0.03508645  0.15368682     0.40400
H1160       H  0.08485197  0.05887547  0.15856424     0.35300
C1161       C  0.24409617  0.02872875  0.22307340    -0.26500
C1162       C  0.22512615  0.00885509  0.22441056    -0.14500
C1163       C  0.22629899  0.99041389  0.24499348     0.36100
C1164       C  0.24678906  0.99196313  0.26347184    -0.25900
C1165       C  0.26609800  0.01152022  0.26172408    -0.15200
C1166       C  0.26436070  0.03045144  0.24164880     0.37200
N1167       N  0.28294570  0.05160511  0.24046774    -0.89400
H1168       H  0.24289327  0.04317275  0.20756138     0.18300
H1169       H  0.24801661  0.97756621  0.27902298     0.18300
N1170       N  0.20701570  0.96995370  0.24676304    -0.88400
H1171       H  0.27891672  0.06385573  0.22455127     0.35700
H1172       H  0.28057563  0.06303506  0.25741937     0.40800
H1173       H  0.20898652  0.95793598  0.23017275     0.40400
H1174       H  0.21061983  0.95809263  0.26307312     0.35300
C1175       C  0.28382605  0.38586674  0.00512460    -0.26500
C1176       C  0.30238733  0.37546154  0.98757751    -0.14500
C1177       C  0.31511842  0.39258295  0.96988038     0.36100
C1178       C  0.31069972  0.41960084  0.97161510    -0.25900
C1179       C  0.29288813  0.43009364  0.98975822    -0.15200
C1180       C  0.27858005  0.41302668  0.00607965     0.37200
N1181       N  0.25965463  0.42335416  0.02425560    -0.89400
H1182       H  0.27372998  0.37279273  0.01842324     0.18300
H1183       H  0.32104006  0.43255306  0.95835697     0.18300
N1184       N  0.33158848  0.38311237  0.94911662    -0.88400
H1185       H  0.25185541  0.40827966  0.03570290     0.35700
H1186       H  0.24407082  0.43082242  0.01327383     0.40800
H1187       H  0.32120735  0.36909722  0.93824151     0.40400
H1188       H  0.34831092  0.37439182  0.95693379     0.35300
C1189       C  0.22244716  0.13458610  0.97203973    -0.26500
C1190       C  0.20723463  0.14738788  0.99122197    -0.14500
C1191       C  0.19700346  0.13264713  0.01228000     0.36100
C1192       C  0.20054067  0.10532035  0.01273073    -0.25900
C1193       C  0.21480948  0.09235809  0.99309337    -0.15200
C1194       C  0.22634216  0.10710325  0.97278089     0.37200
N1195       N  0.24113579  0.09405848  0.95258273    -0.89400
H1196       H  0.23041813  0.14588571  0.95595894     0.18300
H1197       H  0.19183935  0.09394239  0.02838941     0.18300
N1198       N  0.18280595  0.14553323  0.03303300    -0.88400
H1199       H  0.24814461  0.10767782  0.93900763     0.35700
H1200       H  0.22840207  0.08166175  0.94231797     0.40800
H1201       H  0.19578027  0.15821343  0.04265910     0.40400
H1202       H  0.17649046  0.13194332  0.04697670     0.35300
C1203       C  0.12681826  0.23404440  0.97656712    -0.26500
C1204       C  0.13930383  0.21731910  0.99454400    -0.14500
C1205       C  0.12445737  0.20581658  0.01475691     0.36100
C1206       C  0.09728951  0.20916246  0.01526495    -0.25900
C1207       C  0.08456065  0.22449688  0.99638399    -0.15200
C1208       C  0.09947216  0.23786693  0.97737531     0.37200
N1209       N  0.08667010  0.25377540  0.95798716    -0.89400
H1210       H  0.13822555  0.24311491  0.96116842     0.18300
H1211       H  0.08597536  0.19922523  0.03020909     0.18300
N1212       N  0.13694127  0.19049381  0.03470157    -0.88400
H1213       H  0.10033192  0.26130859  0.94475351     0.35700
H1214       H  0.07850197  0.26993894  0.96770549     0.40800
H1215       H  0.12877780  0.17166511  0.03432984     0.40400
H1216       H  0.13267753  0.19901842  0.05291858     0.35300
C1217       C  0.25354243  0.24209368  0.96811469    -0.26500
C1218       C  0.23419220  0.24253018  0.98768834    -0.14500
C1219       C  0.23495685  0.26241531  0.00717228     0.36100
C1220       C  0.25463039  0.28168025  0.00629643    -0.25900
C1221       C  0.27403345  0.28110040  0.98687094    -0.15200
C1222       C  0.27343208  0.26122223  0.96747293     0.37200
N1223       N  0.29287237  0.26071547  0.94710770    -0.89400
H1224       H  0.25293821  0.22692532  0.95312207     0.18300
H1225       H  0.25531454  0.29684046  0.02130255     0.18300
N1226       N  0.21619025  0.26256196  0.02817990    -0.88400
H1227       H  0.28971635  0.24482778  0.93440158     0.35700
H1228       H  0.29053526  0.27773349  0.93594013     0.40800
H1229       H  0.21917787  0.24555291  0.03920820     0.40400
H1230       H  0.21946236  0.27845802  0.04084694     0.35300
C1231       C  0.30556202  0.03508804  0.39872256    -0.26500
C1232       C  0.28997890  0.01577044  0.41043466    -0.14500
C1233       C  0.27684166  0.99730127  0.39441660     0.36100
C1234       C  0.28049781  0.99788253  0.36699915    -0.25900
C1235       C  0.29694558  0.01660910  0.35534709    -0.15200
C1236       C  0.30876959  0.03604114  0.37134190     0.37200
N1237       N  0.32399590  0.05665711  0.35968856    -0.89400
H1238       H  0.31531538  0.04948409  0.41105631     0.18300
H1239       H  0.27126650  0.98306836  0.35476863     0.18300
N1240       N  0.26065511  0.97746885  0.40609495    -0.88400
H1241       H  0.33130078  0.06937516  0.37412428     0.35700
H1242       H  0.31143121  0.06776297  0.34792454     0.40800
H1243       H  0.27269926  0.96553014  0.41755309     0.40400
H1244       H  0.25250179  0.96533772  0.39161160     0.35300
C1245       C  0.90055776  0.28285870  0.48023990    -0.26500
C1246       C  0.91631542  0.29791074  0.49716660    -0.14500
C1247       C  0.90440612  0.31520515  0.51531377     0.36100
C1248       C  0.87715053  0.31815917  0.51523489    -0.25900
C1249       C  0.86140247  0.30441629  0.49727032    -0.15200
C1250       C  0.87314492  0.28622696  0.47982274     0.37200
N1251       N  0.85740757  0.27218871  0.46101817    -0.89400
H1252       H  0.90975559  0.26957578  0.46635363     0.18300
H1253       H  0.86811364  0.33178405  0.52890825     0.18300
N1254       N  0.92012409  0.32989112  0.53365463    -0.88400
H1255       H  0.86905484  0.25969348  0.44960691     0.35700
H1256       H  0.84932089  0.28597138  0.44819669     0.40800
H1257       H  0.92901608  0.31636535  0.54621369     0.40400
H1258       H  0.90841383  0.34198071  0.54541713     0.35300
C1259       C  0.97490918  0.31818622  0.40134768    -0.26500
C1260       C  0.99406294  0.30185969  0.41234413    -0.14500
C1261       C  0.01151589  0.28821839  0.39572123     0.36100
C1262       C  0.00975213  0.29166050  0.36832265    -0.25900
C1263       C  0.99096709  0.30855780  0.35735419    -0.15200
C1264       C  0.97288721  0.32135633  0.37404926     0.37200
N1265       N  0.95249700  0.33748086  0.36316854    -0.89400
H1266       H  0.96130111  0.32834910  0.41416677     0.18300
H1267       H  0.02367103  0.28189634  0.35554787     0.18300
N1268       N  0.03148756  0.27170762  0.40675927    -0.88400
H1269       H  0.94086312  0.34549691  0.37806567     0.35700
H1270       H  0.94034521  0.32529759  0.35194288     0.40800
H1271       H  0.04409033  0.28370590  0.41768565     0.40400
H1272       H  0.04277153  0.26316022  0.39188194     0.35300
C1273       C  0.30711791  0.13165170  0.51657041    -0.26500
C1274       C  0.29531022  0.14607268  0.49628076    -0.14500
C1275       C  0.28060491  0.13268011  0.47703909     0.36100
C1276       C  0.27842185  0.10519778  0.47801651    -0.25900
C1277       C  0.29137788  0.09068518  0.49746260    -0.15200
C1278       C  0.30555718  0.10406650  0.51723628     0.37200
N1279       N  0.31797811  0.08972065  0.53807622    -0.89400
H1280       H  0.31837192  0.14195462  0.53144842     0.18300
H1281       H  0.26759843  0.09503878  0.46272510     0.18300
N1282       N  0.26911325  0.14675261  0.45565083    -0.88400
H1283       H  0.32622244  0.10264372  0.55180074     0.35700
H1284       H  0.33356524  0.07918551  0.52995231     0.40800
H1285       H  0.24901027  0.14296716  0.45561357     0.40400
H1286       H  0.27693156  0.13932442  0.43816335     0.35300
C1287       C  0.37771662  0.20178123  0.46762612    -0.26500
C1288       C  0.36309770  0.21466864  0.48711687    -0.14500
C1289       C  0.37613524  0.23054036  0.50585834     0.36100
C1290       C  0.40342311  0.23272358  0.50498559    -0.25900
C1291       C  0.41806310  0.21868615  0.48631989    -0.15200
C1292       C  0.40510392  0.20331447  0.46720960     0.37200
N1293       N  0.41971070  0.18957164  0.44730145    -0.89400
H1294       H  0.36769848  0.18961448  0.45326677     0.18300
H1295       H  0.41335965  0.24447341  0.51974666     0.18300
N1296       N  0.36241189  0.24340287  0.52679585    -0.88400
H1297       H  0.40705632  0.18078888  0.43370422     0.35700
H1298       H  0.42968898  0.17417279  0.45639311     0.40800
H1299       H  0.35184296  0.22931237  0.53720859     0.40400
H1300       H  0.34930617  0.25690253  0.51876307     0.35300
C1301       C  0.09302108  0.28399599  0.47877327    -0.26500
C1302       C  0.07751763  0.29974667  0.49528768    -0.14500
C1303       C  0.08982703  0.31692690  0.51334323     0.36100
C1304       C  0.11722714  0.31863928  0.51380314    -0.25900
C1305       C  0.13274454  0.30442623  0.49594939    -0.15200
C1306       C  0.12046196  0.28650314  0.47865309     0.37200
N1307       N  0.13558935  0.27181807  0.46003113    -0.89400
H1308       H  0.08374476  0.27061806  0.46500550     0.18300
H1309       H  0.12653139  0.33202309  0.52754233     0.18300
N1310       N  0.07453877  0.33241247  0.53138431    -0.88400
H1311       H  0.12894659  0.27648491  0.44119375     0.35700
H1312       H  0.13207451  0.25185503  0.46316377     0.40800
H1313       H  0.06551480  0.34732759  0.52063716     0.40400
H1314       H  0.08666106  0.34193753  0.54496870     0.35300
C1315       C  0.22096198  0.38485250  0.50212223    -0.26500
C1316       C  0.20036753  0.37416265  0.48717276    -0.14500
C1317       C  0.18475344  0.39107614  0.47178440     0.36100
C1318       C  0.18829136  0.41829546  0.47374889    -0.25900
C1319       C  0.20792261  0.42911344  0.48972280    -0.15200
C1320       C  0.22507373  0.41221492  0.50334672     0.37200
N1321       N  0.24587872  0.42283943  0.51912162    -0.89400
H1322       H  0.23318192  0.37193538  0.51371936     0.18300
H1323       H  0.17568905  0.43122070  0.46255637     0.18300
N1324       N  0.16533946  0.38051844  0.45418839    -0.88400
H1325       H  0.25701257  0.40774406  0.52736637     0.35700
H1326       H  0.23722812  0.43290085  0.53477409     0.40800
H1327       H  0.17513213  0.36948185  0.43988502     0.40400
H1328       H  0.15553503  0.39557364  0.44433796     0.35300
C1329       C  0.24946294  0.28174540  0.50503871    -0.26500
C1330       C  0.22818396  0.27943760  0.48774606    -0.14500
C1331       C  0.22726403  0.25803627  0.46998870     0.36100
C1332       C  0.24723110  0.23893856  0.47057377    -0.25900
C1333       C  0.26831914  0.24111275  0.48818525    -0.15200
C1334       C  0.26940436  0.26284053  0.50544240     0.37200
N1335       N  0.29032497  0.26534644  0.52403766    -0.89400
H1336       H  0.25033344  0.29806822  0.51876303     0.18300
H1337       H  0.24652464  0.22244414  0.45705752     0.18300
N1338       N  0.20628430  0.25599276  0.45125389    -0.88400
H1339       H  0.29970150  0.28327068  0.52073970     0.35700
H1340       H  0.28223043  0.26591587  0.54287556     0.40800
H1341       H  0.20762745  0.27209092  0.43867179     0.40400
H1342       H  0.20852699  0.23917841  0.43958445     0.35300
C1343       C  0.62897750  0.27789789  0.00159380    -0.26500
C1344       C  0.64036400  0.29653599  0.98477801    -0.14500
C1345       C  0.62416009  0.30992785  0.96681406     0.36100
C1346       C  0.59703658  0.30637673  0.96756181    -0.25900
C1347       C  0.58545543  0.28892769  0.98526444    -0.15200
C1348       C  0.60162091  0.27377838  0.00186056     0.37200
N1349       N  0.59018074  0.25554592  0.01996506    -0.89400
H1350       H  0.64130732  0.26730550  0.01524919     0.18300
H1351       H  0.58487857  0.31774653  0.95440274     0.18300
N1352       N  0.63517805  0.32722114  0.94768127    -0.88400
H1353       H  0.60468464  0.24686747  0.03154397     0.35700
H1354       H  0.58177938  0.24037012  0.00892595     0.40800
H1355       H  0.62695638  0.34585145  0.95038498     0.40400
H1356       H  0.62973692  0.32043834  0.92904493     0.35300
C1357       C  0.38523203  0.31794807  0.01403578    -0.26500
C1358       C  0.36946078  0.30477083  0.99556768    -0.14500
C1359       C  0.38133969  0.28697988  0.97789912     0.36100
C1360       C  0.40860182  0.28331165  0.97848047    -0.25900
C1361       C  0.42446714  0.29784826  0.99574347    -0.15200
C1362       C  0.41259583  0.31511919  0.01400022     0.37200
N1363       N  0.42824936  0.32956339  0.03260042    -0.89400
H1364       H  0.37620730  0.33131281  0.02796341     0.18300
H1365       H  0.41753781  0.27004251  0.96439995     0.18300
N1366       N  0.36603487  0.27370134  0.95835573    -0.88400
H1367       H  0.41632137  0.33953985  0.04600982     0.35700
H1368       H  0.43826238  0.34410606  0.02227523     0.40800
H1369       H  0.36871657  0.25348980  0.96070575     0.40400
H1370       H  0.37322501  0.27888148  0.93988570     0.35300
C1371       C  0.61632617  0.98577584  0.31072861    -0.26500
C1372       C  0.63230855  0.00268421  0.29601748    -0.14500
C1373       C  0.62071604  0.01806272  0.27606341     0.36100
C1374       C  0.59356079  0.01620599  0.27141165    -0.25900
C1375       C  0.57756650  0.00013607  0.28693730    -0.15200
C1376       C  0.58916624  0.98447799  0.30656553     0.37200
N1377       N  0.57330178  0.96731758  0.32224686    -0.89400
H1378       H  0.62508442  0.97356926  0.32573325     0.18300
H1379       H  0.58462597  0.02841518  0.25651266     0.18300
N1380       N  0.63627809  0.03630220  0.26135113    -0.88400
H1381       H  0.58477058  0.95735203  0.33599460     0.35700
H1382       H  0.56537013  0.95304486  0.30972721     0.40800
H1383       H  0.64317754  0.05057623  0.27446727     0.40400
H1384       H  0.62479061  0.04611997  0.24751097     0.35300
C1385       C  0.40564896  0.03588519  0.28727278    -0.26500
C1386       C  0.41697996  0.01373399  0.27542978    -0.14500
C1387       C  0.40073806  0.99368903  0.26536939     0.36100
C1388       C  0.37345955  0.99532441  0.26918751    -0.25900
C1389       C  0.36224144  0.01680283  0.28248028    -0.15200
C1390       C  0.37849669  0.03798135  0.29036462     0.37200
N1391       N  0.36818097  0.06188976  0.30140284    -0.89400
H1392       H  0.41808378  0.05161160  0.29446452     0.18300
H1393       H  0.36104862  0.97918994  0.26298207     0.18300
N1394       N  0.41211702  0.97100016  0.25294992    -0.88400
H1395       H  0.37364987  0.06265562  0.32118185     0.35700
H1396       H  0.34778826  0.06247872  0.30055516     0.40800
H1397       H  0.42091020  0.97722123  0.23554236     0.40400
H1398       H  0.39755931  0.95759962  0.24753266     0.35300
C1399       C  0.49225050  0.28360281  0.11470834    -0.26500
C1400       C  0.51330949  0.29747736  0.12587067    -0.14500
C1401       C  0.53402212  0.30592648  0.10951338     0.36100
C1402       C  0.53193274  0.30257563  0.08232441    -0.25900
C1403       C  0.51022311  0.29007459  0.07103008    -0.15200
C1404       C  0.49055620  0.27975045  0.08747064     0.37200
N1405       N  0.46799479  0.26671995  0.07695712    -0.89400
H1406       H  0.47636695  0.27694597  0.12708160     0.18300
H1407       H  0.54738904  0.30998871  0.06983070     0.18300
N1408       N  0.55748443  0.31775970  0.11974590    -0.88400
H1409       H  0.47424196  0.25019636  0.06643419     0.35700
H1410       H  0.45857144  0.27948018  0.06398717     0.40800
H1411       H  0.55840412  0.31678081  0.14018570     0.40400
H1412       H  0.55734195  0.33758914  0.11451025     0.35300
C1413       C  0.49028300  0.38024803  0.20748490    -0.26500
C1414       C  0.51071280  0.36985406  0.19223873    -0.14500
C1415       C  0.52939126  0.38709696  0.18136469     0.36100
C1416       C  0.52664478  0.41432897  0.18519433    -0.25900
C1417       C  0.50580240  0.42477819  0.19983084    -0.15200
C1418       C  0.48727907  0.40745226  0.21110503     0.37200
N1419       N  0.46459519  0.41653641  0.22520364    -0.89400
H1420       H  0.47571238  0.36714830  0.21560431     0.18300
H1421       H  0.54077043  0.42757507  0.17651819     0.18300
N1422       N  0.55097444  0.37689423  0.16635755    -0.88400
H1423       H  0.44805363  0.41026505  0.21477720     0.35700
H1424       H  0.46345141  0.43693675  0.22586190     0.40800
H1425       H  0.56248825  0.36558593  0.17898218     0.40400
H1426       H  0.56284851  0.39215311  0.15963297     0.35300
C1427       C  0.48862024  0.13081862  0.27268409    -0.26500
C1428       C  0.50864807  0.14144438  0.28833664    -0.14500
C1429       C  0.52716710  0.12444180  0.29990002     0.36100
C1430       C  0.52438040  0.09716489  0.29679191    -0.25900
C1431       C  0.50385038  0.08646472  0.28190479    -0.15200
C1432       C  0.48576002  0.10354770  0.26948928     0.37200
N1433       N  0.46370890  0.09417393  0.25453109    -0.89400
H1434       H  0.47427563  0.14378016  0.26389079     0.18300
H1435       H  0.53831349  0.08409929  0.30609411     0.18300
N1436       N  0.54865591  0.13498276  0.31485865    -0.88400
H1437       H  0.44673796  0.10068781  0.26398359     0.35700
H1438       H  0.46257624  0.07374074  0.25428801     0.40800
H1439       H  0.56026064  0.14592791  0.30204715     0.40400
H1440       H  0.56047601  0.11988074  0.32208184     0.35300
C1441       C  0.48647839  0.22521649  0.36549881    -0.26500
C1442       C  0.50888533  0.21301062  0.35518743    -0.14500
C1443       C  0.52946842  0.20575609  0.37231271     0.36100
C1444       C  0.52645523  0.20959070  0.39934489    -0.25900
C1445       C  0.50362112  0.22078607  0.40975664    -0.15200
C1446       C  0.48345255  0.22905470  0.39261835     0.37200
N1447       N  0.45905791  0.23966647  0.40192242    -0.89400
H1448       H  0.47054559  0.23048913  0.35247097     0.18300
H1449       H  0.54201599  0.20341146  0.41244513     0.18300
N1450       N  0.55364340  0.19459283  0.36306338    -0.88400
H1451       H  0.45768524  0.25899474  0.39522233     0.35700
H1452       H  0.45824365  0.24048380  0.42236679     0.40800
H1453       H  0.55483204  0.19457325  0.34261343     0.40400
H1454       H  0.55432834  0.17504129  0.36921036     0.35300
C1455       C  0.52922168  0.25151922  0.25668356    -0.26500
C1456       C  0.50676246  0.23603726  0.25996791    -0.14500
C1457       C  0.48473375  0.24036237  0.24358612     0.36100
C1458       C  0.48586566  0.26004805  0.22441587    -0.25900
C1459       C  0.50831105  0.27556447  0.22129781    -0.15200
C1460       C  0.53028323  0.27100792  0.23746496     0.37200
N1461       N  0.55419005  0.28529186  0.23418835    -0.89400
H1462       H  0.54621896  0.24817855  0.26898585     0.18300
H1463       H  0.46900585  0.26338319  0.21192700     0.18300
N1464       N  0.46075743  0.22584340  0.24622058    -0.88400
H1465       H  0.55049366  0.30522891  0.23738693     0.35700
H1466       H  0.56054414  0.28276193  0.21482860     0.40800
H1467       H  0.46141604  0.21268497  0.26183690     0.40400
H1468       H  0.45823977  0.21472495  0.22909095     0.35300
C1469       C  0.37715620  0.78776134  0.48045594    -0.26500
C1470       C  0.36596396  0.80712482  0.49671374    -0.14500
C1471       C  0.38210886  0.82126522  0.51427481     0.36100
C1472       C  0.40923830  0.81723953  0.51377267    -0.25900
C1473       C  0.42061096  0.79865452  0.49686017    -0.15200
C1474       C  0.40437119  0.78318739  0.48051440     0.37200
N1475       N  0.41560870  0.76405210  0.46301031    -0.89400
H1476       H  0.36472122  0.77678451  0.46709702     0.18300
H1477       H  0.42165198  0.82888683  0.52655267     0.18300
N1478       N  0.37086713  0.83977265  0.53246901    -0.88400
H1479       H  0.40111258  0.75549047  0.45126770     0.35700
H1480       H  0.42331518  0.74894351  0.47449653     0.40800
H1481       H  0.35887305  0.82925529  0.54528140     0.40400
H1482       H  0.38541565  0.84854694  0.54399119     0.35300
C1483       C  0.30186327  0.88805937  0.46459456    -0.26500
C1484       C  0.29552805  0.87412509  0.48741425    -0.14500
C1485       C  0.28471464  0.88776947  0.50907104     0.36100
C1486       C  0.28122492  0.91502735  0.50778751    -0.25900
C1487       C  0.28884141  0.92912292  0.48548785    -0.15200
C1488       C  0.29869920  0.91549731  0.46342445     0.37200
N1489       N  0.30529775  0.92951544  0.43992271    -0.89400
H1490       H  0.31009205  0.87756713  0.44797678     0.18300
H1491       H  0.27380525  0.92545200  0.52483822     0.18300
N1492       N  0.27847357  0.87465524  0.53307814    -0.88400
H1493       H  0.31127580  0.91647019  0.42518422     0.35700
H1494       H  0.32138840  0.94148771  0.44410376     0.40800
H1495       H  0.29534238  0.86533015  0.54000467     0.40400
H1496       H  0.26431918  0.86036673  0.52914049     0.35300
C1497       C  0.09541291  0.73586213  0.50998416    -0.26500
C1498       C  0.08053599  0.72042757  0.49260999    -0.14500
C1499       C  0.09335435  0.70417432  0.47413849     0.36100
C1500       C  0.12072612  0.70226652  0.47476947    -0.25900
C1501       C  0.13554128  0.71595919  0.49364013    -0.15200
C1502       C  0.12281612  0.73362231  0.51075698     0.37200
N1503       N  0.13747274  0.74831113  0.52977588    -0.89400
H1504       H  0.08566079  0.74873348  0.52388589     0.18300
H1505       H  0.13055085  0.68922742  0.46107386     0.18300
N1506       N  0.07863987  0.68998871  0.45457520    -0.88400
H1507       H  0.13047256  0.74354272  0.54842943     0.35700
H1508       H  0.13385928  0.76826582  0.52663074     0.40800
H1509       H  0.06866556  0.67482566  0.46400765     0.40400
H1510       H  0.09121496  0.68087243  0.44116056     0.35300
C1511       C  0.18829146  0.63149774  0.47773578    -0.26500
C1512       C  0.20262242  0.64598563  0.49633762    -0.14500
C1513       C  0.22086390  0.63277180  0.51237124     0.36100
C1514       C  0.22387490  0.60537347  0.50992445    -0.25900
C1515       C  0.20809117  0.59083037  0.49257035    -0.15200
C1516       C  0.19012779  0.60412985  0.47626588     0.37200
N1517       N  0.17368954  0.58991194  0.45824785    -0.89400
H1518       H  0.17473509  0.64155233  0.46484413     0.18300
H1519       H  0.23754392  0.59528077  0.52266390     0.18300
N1520       N  0.23539983  0.64678870  0.53197293    -0.88400
H1521       H  0.16357726  0.60279552  0.44593543     0.35700
H1522       H  0.15938796  0.58026223  0.46920411     0.40800
H1523       H  0.25531381  0.64382698  0.52831747     0.40400
H1524       H  0.23106753  0.63862103  0.55024834     0.35300
C1525       C  0.25344422  0.73634598  0.48312585    -0.26500
C1526       C  0.23113984  0.74072597  0.49868065    -0.14500
C1527       C  0.22941299  0.76429471  0.51333020     0.36100
C1528       C  0.24942432  0.78308403  0.51162684    -0.25900
C1529       C  0.27152342  0.77885361  0.49576331    -0.15200
C1530       C  0.27354147  0.75503727  0.48158564     0.37200
N1531       N  0.29552853  0.75002920  0.46488186    -0.89400
H1532       H  0.25507500  0.71855803  0.47147361     0.18300
H1533       H  0.24776993  0.80101936  0.52306098     0.18300
N1534       N  0.20768036  0.76905190  0.53044091    -0.88400
H1535       H  0.28859759  0.74686959  0.44579581     0.35700
H1536       H  0.30454200  0.73273372  0.47120212     0.40800
H1537       H  0.21490679  0.77189925  0.54946311     0.40400
H1538       H  0.19857473  0.78645034  0.52454484     0.35300
C1539       C  0.98032286  0.70339275  0.40264365    -0.26500
C1540       C  0.99951452  0.71840325  0.41547597    -0.14500
C1541       C  0.01981417  0.72986157  0.40065401     0.36100
C1542       C  0.02101912  0.72537232  0.37352788    -0.25900
C1543       C  0.00236507  0.70956624  0.36081762    -0.15200
C1544       C  0.98136036  0.69909400  0.37551074     0.37200
N1545       N  0.96058014  0.68452041  0.36337080    -0.89400
H1546       H  0.96455354  0.69471368  0.41386331     0.18300
H1547       H  0.03712650  0.73354233  0.36242616     0.18300
N1548       N  0.04013568  0.74501333  0.41281855    -0.88400
H1549       H  0.96813042  0.66734906  0.35507093     0.35700
H1550       H  0.95247274  0.69598588  0.34844298     0.40800
H1551       H  0.04925158  0.73343922  0.42708666     0.40400
H1552       H  0.03164160  0.76125431  0.42206419     0.35300
C1553       C  0.02876247  0.59805842  0.29768748    -0.26500
C1554       C  0.00848026  0.58835976  0.28180970    -0.14500
C1555       C  0.99167967  0.60618906  0.26896285     0.36100
C1556       C  0.99478203  0.63318421  0.27316136    -0.25900
C1557       C  0.01435652  0.64291989  0.28997966    -0.15200
C1558       C  0.03225631  0.62508459  0.30154929     0.37200
N1559       N  0.05433342  0.63361442  0.31690373    -0.89400
H1560       H  0.04206527  0.58447070  0.30717142     0.18300
H1561       H  0.98085612  0.64658544  0.26435129     0.18300
N1562       N  0.97031646  0.59742504  0.25292627    -0.88400
H1563       H  0.05098046  0.62820154  0.33640881     0.35700
H1564       H  0.05662504  0.65394623  0.31644238     0.40800
H1565       H  0.95843264  0.58508407  0.26411772     0.40400
H1566       H  0.97782790  0.58670123  0.23709787     0.35300
C1567       C  0.01042663  0.78635960  0.11891296    -0.26500
C1568       C  0.98948910  0.79881275  0.13173452    -0.14500
C1569       C  0.96755048  0.80702379  0.11682445     0.36100
C1570       C  0.96819100  0.80464520  0.08942187    -0.25900
C1571       C  0.98966668  0.79342873  0.07645979    -0.15200
C1572       C  0.01096586  0.78371697  0.09144553     0.37200
N1573       N  0.03396192  0.77239739  0.07965040    -0.89400
H1574       H  0.02728243  0.78007840  0.13021137     0.18300
H1575       H  0.95174497  0.81185899  0.07806479     0.18300
N1576       N  0.94451040  0.81815489  0.12870801    -0.88400
H1577       H  0.04982803  0.78449765  0.08440191     0.35700
H1578       H  0.03285333  0.77208679  0.05922327     0.40800
H1579       H  0.94543544  0.81740049  0.14915436     0.40400
H1580       H  0.92865797  0.80626013  0.12342681     0.35300
C1581       C  0.01744556  0.88494443  0.18578289    -0.26500
C1582       C  0.99788657  0.87012049  0.19807337    -0.14500
C1583       C  0.97871682  0.88318540  0.21332069     0.36100
C1584       C  0.97930244  0.91067382  0.21556071    -0.25900
C1585       C  0.99826919  0.92549541  0.20231504    -0.15200
C1586       C  0.01779182  0.91234330  0.18765376     0.37200
N1587       N  0.03841209  0.92627454  0.17474704    -0.89400
H1588       H  0.03226212  0.87512266  0.17409773     0.18300
H1589       H  0.96418873  0.92058588  0.22676941     0.18300
N1590       N  0.95772261  0.86922178  0.22554471    -0.88400
H1591       H  0.04806751  0.93795459  0.18864688     0.35700
H1592       H  0.03028904  0.93842617  0.16041784     0.40800
H1593       H  0.96559650  0.85605994  0.23909756     0.40400
H1594       H  0.94773294  0.85854118  0.21109801     0.35300
C1595       C  0.02759333  0.74308634  0.25052876    -0.26500
C1596       C  0.00600805  0.73803467  0.26676860    -0.14500
C1597       C  0.98246466  0.75208723  0.26268682     0.36100
C1598       C  0.98113228  0.77101470  0.24289059    -0.25900
C1599       C  0.00266969  0.77600301  0.22667004    -0.15200
C1600       C  0.02614041  0.76188587  0.23057003     0.37200
N1601       N  0.04877957  0.76645590  0.21470065    -0.89400
H1602       H  0.04566317  0.73230353  0.25337454     0.18300
H1603       H  0.96298849  0.78160806  0.23981741     0.18300
N1604       N  0.95930703  0.74677907  0.27756322    -0.88400
H1605       H  0.05380693  0.78630247  0.21632458     0.35700
H1606       H  0.04395782  0.76248704  0.19513095     0.40800
H1607       H  0.96288530  0.75109814  0.29730292     0.40400
H1608       H  0.95490624  0.72679792  0.27576086     0.35300
C1609       C  0.27248275  0.63483029  0.97788445    -0.26500
C1610       C  0.28791209  0.64619639  0.99779459    -0.14500
C1611       C  0.29906100  0.62987018  0.01720249     0.36100
C1612       C  0.29646291  0.60266320  0.01507598    -0.25900
C1613       C  0.28246184  0.59118471  0.99431030    -0.15200
C1614       C  0.26947370  0.60734702  0.97604878     0.37200
N1615       N  0.25467658  0.59581333  0.95492833    -0.89400
H1616       H  0.26370170  0.64735447  0.96315214     0.18300
H1617       H  0.30581972  0.59029061  0.02960322     0.18300
N1618       N  0.31277092  0.64034959  0.03948787    -0.88400
H1619       H  0.24724722  0.61042502  0.94263396     0.35700
H1620       H  0.23848772  0.58642708  0.96316318     0.40800
H1621       H  0.30054984  0.65382597  0.04901340     0.40400
H1622       H  0.32957928  0.65008745  0.03325081     0.35300
C1623       C  0.08741714  0.78670082  0.98249052    -0.26500
C1624       C  0.07144527  0.80088694  0.99994662    -0.14500
C1625       C  0.08320540  0.81778328  0.01865087     0.36100
C1626       C  0.11052054  0.82076935  0.01888143    -0.25900
C1627       C  0.12641574  0.80767946  0.00057060    -0.15200
C1628       C  0.11474554  0.79018938  0.98246716     0.37200
N1629       N  0.13041815  0.77687634  0.96328067    -0.89400
H1630       H  0.07857207  0.77371236  0.96807823     0.18300
H1631       H  0.11947279  0.83391153  0.03308701     0.18300
N1632       N  0.06746919  0.83152333  0.03767714    -0.88400
H1633       H  0.12366768  0.78217651  0.94465594     0.35700
H1634       H  0.12754748  0.75667701  0.96547763     0.40800
H1635       H  0.05754990  0.84652004  0.02787455     0.40400
H1636       H  0.07933413  0.84089603  0.05158967     0.35300
C1637       C  0.18310226  0.89291296  0.01601408    -0.26500
C1638       C  0.19647279  0.87594490  0.99886333    -0.14500
C1639       C  0.21558212  0.88650542  0.98190165     0.36100
C1640       C  0.22028420  0.91376144  0.98185410    -0.25900
C1641       C  0.20569824  0.93076662  0.99794585    -0.15200
C1642       C  0.18724519  0.92013206  0.01558026     0.37200
N1643       N  0.17311222  0.93691511  0.03341913    -0.89400
H1644       H  0.16892345  0.88489582  0.02958727     0.18300
H1645       H  0.23453476  0.92176195  0.96834265     0.18300
N1646       N  0.22943118  0.86987006  0.96391437    -0.88400
H1647       H  0.16255069  0.92572860  0.04691366     0.35700
H1648       H  0.15913683  0.94714221  0.02251087     0.40800
H1649       H  0.24944944  0.87189835  0.96766267     0.40400
H1650       H  0.22580462  0.87654846  0.94487286     0.35300
C1651       C  0.21878375  0.75943439  0.98209666    -0.26500
C1652       C  0.22100930  0.78016298  0.00026336    -0.14500
C1653       C  0.24273624  0.78087303  0.01737966     0.36100
C1654       C  0.26199722  0.76129899  0.01566812    -0.25900
C1655       C  0.25987106  0.74072237  0.99734430    -0.15200
C1656       C  0.23804085  0.73978957  0.98034391     0.37200
N1657       N  0.23581878  0.71925426  0.96098229    -0.89400
H1658       H  0.20226376  0.75895384  0.96874048     0.18300
H1659       H  0.27857352  0.76200086  0.02895906     0.18300
N1660       N  0.24502846  0.80108149  0.03692433    -0.88400
H1661       H  0.21859072  0.72137171  0.95009632     0.35700
H1662       H  0.25132680  0.72140181  0.94780242     0.40800
H1663       H  0.24594747  0.79212895  0.05533420     0.40400
H1664       H  0.26268762  0.81095397  0.03386493     0.35300
C1665       C  0.37094971  0.70168022  0.97236129    -0.26500
C1666       C  0.35516003  0.71639536  0.98954859    -0.14500
C1667       C  0.36708557  0.73573503  0.00563168     0.36100
C1668       C  0.39450973  0.73868763  0.00544348    -0.25900
C1669       C  0.41021463  0.72231753  0.98978580    -0.15200
C1670       C  0.39818760  0.70431778  0.97250658     0.37200
N1671       N  0.41367202  0.68857248  0.95503904    -0.89400
H1672       H  0.36215160  0.68739600  0.95920033     0.18300
H1673       H  0.40359008  0.75281963  0.01857136     0.18300
N1674       N  0.35167357  0.75149820  0.02310337    -0.88400
H1675       H  0.40769073  0.69248642  0.93580820     0.35700
H1676       H  0.40977549  0.66881365  0.95892386     0.40800
H1677       H  0.35486114  0.77121943  0.01847396     0.40400
H1678       H  0.35835414  0.74838838  0.04225156     0.35300
C1679       C  0.47769814  0.78944467  0.37101979    -0.26500
C1680       C  0.49616900  0.80498251  0.35786957    -0.14500
C1681       C  0.51669216  0.81680608  0.37233535     0.36100
C1682       C  0.51729558  0.81431456  0.39975571    -0.25900
C1683       C  0.49839618  0.79951098  0.41292301    -0.15200
C1684       C  0.47858866  0.78662564  0.39849968     0.37200
N1685       N  0.45890300  0.77167635  0.41190452    -0.89400
H1686       H  0.46192405  0.78043472  0.35995912     0.18300
H1687       H  0.53266443  0.82387215  0.41095813     0.18300
N1688       N  0.53680918  0.83133202  0.35908275    -0.88400
H1689       H  0.44572172  0.76347363  0.39845943     0.35700
H1690       H  0.44816598  0.78476641  0.42355103     0.40800
H1691       H  0.54696345  0.81813979  0.34702945     0.40400
H1692       H  0.55038733  0.83881771  0.37254828     0.35300
C1693       C  0.46793482  0.88583897  0.29418878    -0.26500
C1694       C  0.48939256  0.87056121  0.28633424    -0.14500
C1695       C  0.51074010  0.88273670  0.27351482     0.36100
C1696       C  0.51031904  0.91004203  0.26979297    -0.25900
C1697       C  0.48945536  0.92545508  0.27900241    -0.15200
C1698       C  0.46749869  0.91304873  0.29044960     0.37200
N1699       N  0.44456068  0.92729913  0.29864715    -0.89400
H1700       H  0.45148692  0.87653246  0.30382119     0.18300
H1701       H  0.52711323  0.91947109  0.26091574     0.18300
N1702       N  0.53350059  0.86841168  0.26499167    -0.88400
H1703       H  0.42868408  0.91984513  0.28799905     0.35700
H1704       H  0.44569509  0.94713257  0.29374534     0.40800
H1705       H  0.53201679  0.84840430  0.26898566     0.40400
H1706       H  0.54948256  0.87534977  0.27582154     0.35300
C1707       C  0.47493731  0.73028535  0.11731943    -0.26500
C1708       C  0.49260798  0.71239036  0.12861479    -0.14500
C1709       C  0.51182131  0.70042365  0.11264841     0.36100
C1710       C  0.51137528  0.70455093  0.08546784    -0.25900
C1711       C  0.49279150  0.72115188  0.07397258    -0.15200
C1712       C  0.47490324  0.73487225  0.09003142     0.37200
N1713       N  0.45615253  0.75245161  0.07850016    -0.89400
H1714       H  0.46037594  0.73971349  0.12961233     0.18300
H1715       H  0.52544399  0.69450110  0.07306870     0.18300
N1716       N  0.53152857  0.68387555  0.12412032    -0.88400
H1717       H  0.44442396  0.76097261  0.09304209     0.35700
H1718       H  0.44371543  0.74130454  0.06653271     0.40800
H1719       H  0.54286179  0.69560360  0.13662913     0.40400
H1720       H  0.54415611  0.67657576  0.10968307     0.35300
C1721       C  0.49998854  0.63078119  0.21526555    -0.26500
C1722       C  0.48403670  0.64111541  0.19527466    -0.14500
C1723       C  0.46867022  0.62370109  0.18001937     0.36100
C1724       C  0.47169407  0.59647067  0.18312324    -0.25900
C1725       C  0.48877037  0.58608828  0.20201705    -0.15200
C1726       C  0.50232407  0.60342820  0.21896804     0.37200
N1727       N  0.51914447  0.59328298  0.23915989    -0.89400
H1728       H  0.51157347  0.64401716  0.22727259     0.18300
H1729       H  0.46058763  0.58319677  0.17069069     0.18300
N1730       N  0.45005380  0.63375058  0.16139426    -0.88400
H1731       H  0.52743398  0.60862299  0.25006341     0.35700
H1732       H  0.53461288  0.58347982  0.22993606     0.40800
H1733       H  0.43587198  0.64418763  0.17193432     0.40400
H1734       H  0.44031981  0.61839497  0.15180427     0.35300
C1735       C  0.46637118  0.75461856  0.22461845    -0.26500
C1736       C  0.48648433  0.73584290  0.22421917    -0.14500
C1737       C  0.50583740  0.73646297  0.24416839     0.36100
C1738       C  0.50432511  0.75556595  0.26399720    -0.25900
C1739       C  0.48439992  0.77456325  0.26428944    -0.15200
C1740       C  0.46487723  0.77376300  0.24445177     0.37200
N1741       N  0.44277225  0.79124008  0.24424593    -0.89400
H1742       H  0.45132585  0.75406949  0.20959273     0.18300
H1743       H  0.51963612  0.75628045  0.27873918     0.18300
N1744       N  0.52808493  0.71915349  0.24425192    -0.88400
H1745       H  0.44515607  0.80418507  0.22856546     0.35700
H1746       H  0.44146868  0.80233729  0.26146857     0.40800
H1747       H  0.52918502  0.70767452  0.22728461     0.40400
H1748       H  0.52606160  0.70645763  0.26019190     0.35300
C1749       C  0.27849097  0.51680127  0.86561458    -0.26500
C1750       C  0.29657201  0.49832443  0.85587257    -0.14500
C1751       C  0.30949344  0.48162441  0.87372532     0.36100
C1752       C  0.30601489  0.48521891  0.90079287    -0.25900
C1753       C  0.28902068  0.50455565  0.91057376    -0.15200
C1754       C  0.27447746  0.51998853  0.89285455     0.37200
N1755       N  0.25647484  0.53942185  0.90255802    -0.89400
H1756       H  0.26834469  0.52956672  0.85202299     0.18300
H1757       H  0.31664671  0.47273072  0.91430395     0.18300
N1758       N  0.32601502  0.46082283  0.86441965    -0.88400
H1759       H  0.24728240  0.54903511  0.88697116     0.35700
H1760       H  0.26733820  0.55363820  0.91268025     0.40800
H1761       H  0.31865353  0.44308196  0.87153615     0.40400
H1762       H  0.34468590  0.46355296  0.87240486     0.35300
C1763       C  0.37600046  0.51824044  0.77014017    -0.26500
C1764       C  0.36549153  0.49890065  0.78668492    -0.14500
C1765       C  0.38242624  0.48041029  0.79827307     0.36100
C1766       C  0.40945731  0.48275947  0.79498553    -0.25900
C1767       C  0.42009744  0.50276799  0.77957929    -0.15200
C1768       C  0.40326090  0.52021555  0.76624655     0.37200
N1769       N  0.41387904  0.54065739  0.75008482    -0.89400
H1770       H  0.36302725  0.53237982  0.76105419     0.18300
H1771       H  0.42227444  0.46881131  0.80461652     0.18300
N1772       N  0.37218732  0.45912035  0.81340137    -0.88400
H1773       H  0.39889214  0.55253165  0.74274190     0.35700
H1774       H  0.42260412  0.53169411  0.73378954     0.40800
H1775       H  0.38025330  0.46024815  0.83225334     0.40400
H1776       H  0.37843995  0.44152638  0.80477738     0.35300
C1777       C  0.11873991  0.53200524  0.68891897    -0.26500
C1778       C  0.13451244  0.51169821  0.69872547    -0.14500
C1779       C  0.12292965  0.49163951  0.71389215     0.36100
C1780       C  0.09563872  0.49184935  0.71801221    -0.25900
C1781       C  0.07984484  0.51135265  0.70677539    -0.15200
C1782       C  0.09156241  0.53203847  0.69278751     0.37200
N1783       N  0.07567311  0.55280212  0.68224386    -0.89400
H1784       H  0.12766663  0.54765081  0.67770343     0.18300
H1785       H  0.08649832  0.47597852  0.72872154     0.18300
N1786       N  0.13867341  0.47058220  0.72402245    -0.88400
H1787       H  0.08726314  0.56648373  0.67237719     0.35700
H1788       H  0.06715304  0.56277178  0.69806949     0.40800
H1789       H  0.14615473  0.46009944  0.70800381     0.40400
H1790       H  0.12715046  0.45743991  0.73467069     0.35300
C1791       C  0.21683476  0.49411637  0.61739497    -0.26500
C1792       C  0.20258578  0.51487488  0.62865995    -0.14500
C1793       C  0.19390639  0.53557924  0.61242608     0.36100
C1794       C  0.19748142  0.53386388  0.58525395    -0.25900
C1795       C  0.21037588  0.51235658  0.57376838    -0.15200
C1796       C  0.22113282  0.49269089  0.59020004     0.37200
N1797       N  0.23528500  0.47041921  0.58013752    -0.89400
H1798       H  0.22395119  0.47836909  0.62975148     0.18300
H1799       H  0.18994449  0.54943931  0.57291669     0.18300
N1800       N  0.18210163  0.55887987  0.62300160    -0.88400
H1801       H  0.25428843  0.47135921  0.58771242     0.35700
H1802       H  0.23706985  0.47108434  0.55979908     0.40800
H1803       H  0.19480869  0.56692559  0.63698954     0.40400
H1804       H  0.16453238  0.55405331  0.63218708     0.35300
C1805       C  0.25016394  0.48902597  0.71938652    -0.26500
C1806       C  0.23004610  0.50752533  0.72292557    -0.14500
C1807       C  0.23030268  0.52382429  0.74544328     0.36100
C1808       C  0.25034212  0.52092456  0.76411241    -0.25900
C1809       C  0.27036768  0.50231790  0.76070741    -0.15200
C1810       C  0.27023775  0.48612653  0.73807941     0.37200
N1811       N  0.29013821  0.46647844  0.73440100    -0.89400
H1812       H  0.24990289  0.47641252  0.70218183     0.18300
H1813       H  0.25060881  0.53361306  0.78125967     0.18300
N1814       N  0.21050642  0.54359297  0.74904354    -0.88400
H1815       H  0.28726559  0.45633986  0.71672671     0.35700
H1816       H  0.28814816  0.45272229  0.74943914     0.40800
H1817       H  0.21254642  0.55725318  0.73392495     0.40400
H1818       H  0.21344682  0.55381928  0.76665626     0.35300
C1819       C  0.30699756  0.98067006  0.61107330    -0.26500
C1820       C  0.29845722  0.00177262  0.62671790    -0.14500
C1821       C  0.28555658  0.02315310  0.61469987     0.36100
C1822       C  0.28192979  0.02320100  0.58740837    -0.25900
C1823       C  0.29158938  0.00267205  0.57169779    -0.15200
C1824       C  0.30390507  0.98096968  0.58364952     0.37200
N1825       N  0.31297504  0.95922628  0.56796708    -0.89400
H1826       H  0.31689564  0.96427434  0.62027924     0.18300
H1827       H  0.27268580  0.04000801  0.57826812     0.18300
N1828       N  0.27732373  0.04569898  0.62947024    -0.88400
H1829       H  0.32020466  0.94426045  0.57994883     0.35700
H1830       H  0.32882321  0.96574317  0.55682527     0.40800
H1831       H  0.29353203  0.05336959  0.63943030     0.40400
H1832       H  0.26344669  0.03980643  0.64326089     0.35300
C1833       C  0.12877979  0.99049539  0.76976623    -0.26500
C1834       C  0.14045288  0.00759954  0.78812356    -0.14500
C1835       C  0.12457789  0.02607746  0.80149099     0.36100
C1836       C  0.09737260  0.02554234  0.79792931    -0.25900
C1837       C  0.08553824  0.00768952  0.78057521    -0.15200
C1838       C  0.10141718  0.99046486  0.76571833     0.37200
N1839       N  0.08964798  0.97193769  0.74790639    -0.89400
H1840       H  0.14089211  0.97639152  0.75940722     0.18300
H1841       H  0.08521668  0.03899340  0.80906798     0.18300
N1842       N  0.13614371  0.04511319  0.81895739    -0.88400
H1843       H  0.10394370  0.95984332  0.73950636     0.35700
H1844       H  0.08138555  0.98259259  0.73249065     0.40800
H1845       H  0.14809391  0.05732327  0.80771186     0.40400
H1846       H  0.12178204  0.05712287  0.82736753     0.35300
C1847       C  0.19781549  0.02737793  0.87097098    -0.26500
C1848       C  0.20843836  0.00567018  0.85758844    -0.14500
C1849       C  0.22230127  0.98640992  0.87208139     0.36100
C1850       C  0.22472163  0.98938797  0.89945673    -0.25900
C1851       C  0.21281045  0.01040992  0.91284514    -0.15200
C1852       C  0.19970709  0.03003934  0.89825490     0.37200
N1853       N  0.18798662  0.05286236  0.91022312    -0.89400
H1854       H  0.18733985  0.04230018  0.86004599     0.18300
H1855       H  0.23479284  0.97432140  0.91055065     0.18300
N1856       N  0.23311871  0.96314113  0.86015895    -0.88400
H1857       H  0.19719639  0.06940873  0.90243147     0.35700
H1858       H  0.19134824  0.05370121  0.93039289     0.40800
H1859       H  0.22924812  0.96220862  0.84008836     0.40400
H1860       H  0.22367605  0.94694771  0.86840164     0.35300
C1861       C  0.23509576  0.02108660  0.74213667    -0.26500
C1862       C  0.23583630  0.00248296  0.76239474    -0.14500
C1863       C  0.25638706  0.98392586  0.76273844     0.36100
C1864       C  0.27564791  0.98429671  0.74302676    -0.25900
C1865       C  0.27472052  0.00275513  0.72262868    -0.15200
C1866       C  0.25433236  0.02146429  0.72245835     0.37200
N1867       N  0.25344539  0.04132893  0.70266242    -0.89400
H1868       H  0.21968302  0.03570789  0.74177642     0.18300
H1869       H  0.29106968  0.96968059  0.74334775     0.18300
N1870       N  0.25731986  0.96413618  0.78260398    -0.88400
H1871       H  0.23555738  0.03973085  0.69279959     0.35700
H1872       H  0.25402947  0.05967189  0.71197339     0.40800
H1873       H  0.25686130  0.94576348  0.77334796     0.40400
H1874       H  0.27518279  0.96585499  0.79249827     0.35300
C1875       C  0.97896666  0.31455110  0.58577104    -0.26500
C1876       C  0.99522985  0.29569714  0.57402234    -0.14500
C1877       C  0.00978572  0.27859563  0.59025672     0.36100
C1878       C  0.00934327  0.28219742  0.61761332    -0.25900
C1879       C  0.99396774  0.30201192  0.62927176    -0.15200
C1880       C  0.97737151  0.31728036  0.61300701     0.37200
N1881       N  0.95812938  0.33518017  0.62329751    -0.89400
H1882       H  0.96701824  0.32721072  0.57361307     0.18300
H1883       H  0.02193165  0.27012722  0.62972329     0.18300
N1884       N  0.02609578  0.25833018  0.57956522    -0.88400
H1885       H  0.96449906  0.35432022  0.61963928     0.35700
H1886       H  0.95553494  0.33300074  0.64348952     0.40800
H1887       H  0.03942529  0.26686488  0.56662082     0.40400
H1888       H  0.01428701  0.24517552  0.56909595     0.35300
C1889       C  0.02500782  0.41323800  0.69127821    -0.26500
C1890       C  0.00483280  0.42460973  0.70606224    -0.14500
C1891       C  0.98611691  0.40828399  0.71817235     0.36100
C1892       C  0.98752948  0.38103909  0.71453051    -0.25900
C1893       C  0.00717450  0.36971520  0.69885866    -0.15200
C1894       C  0.02661650  0.38604394  0.68772260     0.37200
N1895       N  0.04829435  0.37582791  0.67287151    -0.89400
H1896       H  0.03960282  0.42567306  0.68219539     0.18300
H1897       H  0.97238399  0.36873818  0.72284989     0.18300
N1898       N  0.96460393  0.41889007  0.73279936    -0.88400
H1899       H  0.04563410  0.38130994  0.65328796     0.35700
H1900       H  0.04920818  0.35537208  0.67347757     0.40800
H1901       H  0.95425730  0.43181550  0.72073020     0.40400
H1902       H  0.97202063  0.42941050  0.74883396     0.35300
C1903       C  0.02134292  0.12618007  0.80803448    -0.26500
C1904       C  0.00490045  0.14182770  0.79246559    -0.14500
C1905       C  0.98945451  0.12967538  0.77277288     0.36100
C1906       C  0.99074729  0.10219108  0.76933331    -0.25900
C1907       C  0.00627648  0.08663129  0.78587440    -0.15200
C1908       C  0.02197368  0.09881866  0.80519872     0.37200
N1909       N  0.03858407  0.08333180  0.82188958    -0.89400
H1910       H  0.03369726  0.13537706  0.82273990     0.18300
H1911       H  0.97863498  0.09275377  0.75457336     0.18300
N1912       N  0.97181022  0.14503015  0.75708513    -0.88400
H1913       H  0.04853165  0.09524930  0.83537142     0.35700
H1914       H  0.05281676  0.07461905  0.80997229     0.40800
H1915       H  0.95763834  0.15291891  0.76964500     0.40400
H1916       H  0.96189185  0.13309341  0.74359699     0.35300
C1917       C  0.02608698  0.20434528  0.87384764    -0.26500
C1918       C  0.00473956  0.21336976  0.85909961    -0.14500
C1919       C  0.98404597  0.22662964  0.87185994     0.36100
C1920       C  0.98486841  0.22986292  0.89938225    -0.25900
C1921       C  0.00566864  0.21956681  0.91416366    -0.15200
C1922       C  0.02668327  0.20712620  0.90111117     0.37200
N1923       N  0.04891536  0.19714739  0.91506210    -0.89400
H1924       H  0.04204648  0.19420300  0.86411505     0.18300
H1925       H  0.96871552  0.23932944  0.90944352     0.18300
N1926       N  0.96164166  0.23523099  0.85712767    -0.88400
H1927       H  0.04276225  0.18227210  0.92767889     0.35700
H1928       H  0.05696444  0.21239941  0.92626578     0.40800
H1929       H  0.96772449  0.25038044  0.84479154     0.40400
H1930       H  0.94759721  0.24337426  0.86965411     0.35300
C1931       C  0.02433264  0.27279746  0.73976829    -0.26500
C1932       C  0.00179561  0.27502209  0.72410349    -0.14500
C1933       C  0.98052008  0.25774450  0.72846744     0.36100
C1934       C  0.98287192  0.23817957  0.74758068    -0.25900
C1935       C  0.00527545  0.23612404  0.76336028    -0.15200
C1936       C  0.02642384  0.25360265  0.75930504     0.37200
N1937       N  0.05028547  0.25240418  0.77430008    -0.89400
H1938       H  0.04064561  0.28600787  0.73659594     0.18300
H1939       H  0.96653496  0.22503019  0.75087599     0.18300
N1940       N  0.95598756  0.25992088  0.71472176    -0.88400
H1941       H  0.06555431  0.24856470  0.76118748     0.35700
H1942       H  0.05023003  0.23680995  0.78749350     0.40800
H1943       H  0.95548040  0.27627380  0.70251939     0.40400
H1944       H  0.94142002  0.26322519  0.72876271     0.35300
C1945       C  0.38019459  0.01648889  0.71229795    -0.26500
C1946       C  0.36914578  0.99909796  0.69383948    -0.14500
C1947       C  0.38562715  0.98138122  0.68018371     0.36100
C1948       C  0.41277001  0.98255740  0.68405786    -0.25900
C1949       C  0.42384956  0.00041954  0.70187807    -0.15200
C1950       C  0.40744458  0.01733548  0.71647207     0.37200
N1951       N  0.41853532  0.03588350  0.73472832    -0.89400
H1952       H  0.36763198  0.03011911  0.72274892     0.18300
H1953       H  0.42541601  0.96933933  0.67316003     0.18300
N1954       N  0.37472173  0.96223102  0.66242724    -0.88400
H1955       H  0.40378743  0.04684553  0.74385893     0.35700
H1956       H  0.42980082  0.04917685  0.72401351     0.40800
H1957       H  0.36314669  0.94948285  0.67346975     0.40400
H1958       H  0.38948424  0.95081199  0.65390083     0.35300
C1959       C  0.52009860  0.31254441  0.86837074    -0.26500
C1960       C  0.49898886  0.30178746  0.85427127    -0.14500
C1961       C  0.47981914  0.28713918  0.86808262     0.36100
C1962       C  0.48247239  0.28379096  0.89537360    -0.25900
C1963       C  0.50299215  0.29557696  0.90947887    -0.15200
C1964       C  0.52242212  0.30969094  0.89561707     0.37200
N1965       N  0.54482081  0.32131230  0.90830517    -0.89400
H1966       H  0.53495235  0.32362653  0.85804211     0.18300
H1967       H  0.46753457  0.27300566  0.90587959     0.18300
N1968       N  0.45689355  0.27640199  0.85559718    -0.88400
H1969       H  0.56155633  0.31270573  0.90016573     0.35700
H1970       H  0.54551487  0.31692548  0.92823443     0.40800
H1971       H  0.45581516  0.28136977  0.83580905     0.40400
H1972       H  0.44056025  0.28511169  0.86439582     0.35300
C1973       C  0.47616743  0.38239146  0.77503387    -0.26500
C1974       C  0.49864805  0.36945476  0.78414823    -0.14500
C1975       C  0.52190316  0.38401934  0.78834746     0.36100
C1976       C  0.52175523  0.41118207  0.78420200    -0.25900
C1977       C  0.49910241  0.42425413  0.77587689    -0.15200
C1978       C  0.47599324  0.40966896  0.77101637     0.37200
N1979       N  0.45171791  0.42188466  0.76356734    -0.89400
H1980       H  0.45824617  0.37136483  0.77214192     0.18300
H1981       H  0.53941469  0.42234026  0.78814544     0.18300
N1982       N  0.54595827  0.37204676  0.79683127    -0.88400
H1983       H  0.44661957  0.41467383  0.74499892     0.35700
H1984       H  0.45357396  0.44219902  0.76174306     0.40800
H1985       H  0.54453739  0.35163398  0.79781472     0.40400
H1986       H  0.54996274  0.37889560  0.81580360     0.35300
C1987       C  0.47502278  0.12222627  0.68287154    -0.26500
C1988       C  0.49451684  0.13897141  0.69282624    -0.14500
C1989       C  0.51539655  0.12807465  0.70764571     0.36100
C1990       C  0.51578041  0.10094457  0.71244075    -0.25900
C1991       C  0.49679647  0.08423064  0.70165864    -0.15200
C1992       C  0.47577586  0.09507797  0.68712604     0.37200
N1993       N  0.45485051  0.07933358  0.67647723    -0.89400
H1994       H  0.45899457  0.13036849  0.67154971     0.18300
H1995       H  0.53199646  0.09263527  0.72335862     0.18300
N1996       N  0.53715982  0.14343959  0.71701691    -0.88400
H1997       H  0.43737713  0.08600911  0.68485244     0.35700
H1998       H  0.45645531  0.05968705  0.68189198     0.40800
H1999       H  0.53632228  0.16277381  0.71048734     0.40400
H2000       H  0.55414700  0.13559301  0.70865314     0.35300
C2001       C  0.51569794  0.20072964  0.61095077    -0.26500
C2002       C  0.49367236  0.20908858  0.62513250    -0.14500
C2003       C  0.47346068  0.22286661  0.61191276     0.36100
C2004       C  0.47581807  0.22747644  0.58485107    -0.25900
C2005       C  0.49734132  0.21802639  0.57061054    -0.15200
C2006       C  0.51791894  0.20510779  0.58396273     0.37200
N2007       N  0.54126221  0.19608877  0.57090722    -0.89400
H2008       H  0.53132142  0.19040370  0.62098195     0.18300
H2009       H  0.46001417  0.23729963  0.57460377     0.18300
N2010       N  0.44990593  0.23146710  0.62480793    -0.88400
H2011       H  0.55716116  0.20571474  0.57959443     0.35700
H2012       H  0.54161213  0.20147069  0.55118147     0.40800
H2013       H  0.44950762  0.22606678  0.64450498     0.40400
H2014       H  0.43419941  0.22170984  0.61590864     0.35300
C2015       C  0.51347050  0.25133960  0.72129203    -0.26500
C2016       C  0.49220776  0.23392322  0.72051353    -0.14500
C2017       C  0.47188402  0.23688556  0.73913101     0.36100
C2018       C  0.47348595  0.25676138  0.75823853    -0.25900
C2019       C  0.49472298  0.27424011  0.75895585    -0.15200
C2020       C  0.51491555  0.27141195  0.74013992     0.37200
N2021       N  0.53746730  0.28811854  0.74010721    -0.89400
H2022       H  0.52915199  0.24926829  0.70711862     0.18300
H2023       H  0.45778855  0.25888798  0.77237920     0.18300
N2024       N  0.44892677  0.22075915  0.73844577    -0.88400
H2025       H  0.54615649  0.28750752  0.75869142     0.35700
H2026       H  0.53160552  0.30735646  0.73626245     0.40800
H2027       H  0.45430223  0.20126143  0.74168143     0.40400
H2028       H  0.44048406  0.22216651  0.71979204     0.35300
C2029       C  0.98067185  0.70393471  0.58864174    -0.26500
C2030       C  0.99979327  0.71970680  0.57697122    -0.14500
C2031       C  0.01833304  0.73276706  0.59288252     0.36100
C2032       C  0.01819217  0.72854064  0.62023251    -0.25900
C2033       C  0.99986878  0.71154296  0.63172284    -0.15200
C2034       C  0.98018346  0.70010671  0.61586712     0.37200
N2035       N  0.95996919  0.68435342  0.62749786    -0.89400
H2036       H  0.96614736  0.69437282  0.57635548     0.18300
H2037       H  0.03316368  0.73747881  0.63242122     0.18300
N2038       N  0.03782795  0.74928799  0.58113749    -0.88400
H2039       H  0.94709086  0.67730095  0.61313816     0.35700
H2040       H  0.94904216  0.69657874  0.63987992     0.40800
H2041       H  0.04968988  0.73740026  0.56930802     0.40400
H2042       H  0.04999356  0.75740243  0.59557157     0.35300
C2043       C  0.98075770  0.62642604  0.68597305    -0.26500
C2044       C  0.00109075  0.64051620  0.69816887    -0.14500
C2045       C  0.01916485  0.62706652  0.71423065     0.36100
C2046       C  0.01654270  0.59974814  0.71757639    -0.25900
C2047       C  0.99682574  0.58566267  0.70443997    -0.15200
C2048       C  0.97858059  0.59913353  0.68874544     0.37200
N2049       N  0.95804241  0.58497643  0.67553247    -0.89400
H2050       H  0.96672305  0.63677813  0.67385284     0.18300
H2051       H  0.03071545  0.58919817  0.72935806     0.18300
N2052       N  0.04063749  0.64094430  0.72615548    -0.88400
H2053       H  0.94637350  0.59777628  0.66458277     0.35700
H2054       H  0.94596226  0.57688914  0.68991944     0.40800
H2055       H  0.05250299  0.64801160  0.71104900     0.40400
H2056       H  0.05221020  0.62813175  0.73718400     0.35300
C2057       C  0.98424962  0.78802875  0.87056144    -0.26500
C2058       C  0.00260033  0.80590411  0.86051236    -0.14500
C2059       C  0.01868342  0.82016779  0.87813133     0.36100
C2060       C  0.01469869  0.81779247  0.90524458    -0.25900
C2061       C  0.99591733  0.80053036  0.91524267    -0.15200
C2062       C  0.98086641  0.78506145  0.89782927     0.37200
N2063       N  0.96175506  0.76702047  0.90786375    -0.89400
H2064       H  0.97193574  0.77701378  0.85712647     0.18300
H2065       H  0.02671232  0.82909580  0.91873456     0.18300
N2066       N  0.03916482  0.83684276  0.86840328    -0.88400
H2067       H  0.95241790  0.75708346  0.89247155     0.35700
H2068       H  0.94736031  0.77806003  0.91745140     0.40800
H2069       H  0.05270094  0.82486982  0.85867945     0.40400
H2070       H  0.04919524  0.84589627  0.88390441     0.35300
C2071       C  0.98541321  0.88200499  0.77539284    -0.26500
C2072       C  0.00699800  0.87016406  0.78761514    -0.14500
C2073       C  0.02867514  0.88581994  0.79507176     0.36100
C2074       C  0.02749354  0.91301487  0.79163745    -0.25900
C2075       C  0.00547367  0.92507173  0.78054277    -0.15200
C2076       C  0.98427666  0.90932275  0.77180740     0.37200
N2077       N  0.96068512  0.92026482  0.76097867    -0.89400
H2078       H  0.96866832  0.87009747  0.76993434     0.18300
H2079       H  0.04388143  0.92495938  0.79807063     0.18300
N2080       N  0.05213600  0.87488280  0.80620676    -0.88400
H2081       H  0.95913883  0.91368365  0.74155892     0.35700
H2082       H  0.96121248  0.94072385  0.76041463     0.40800
H2083       H  0.05188792  0.85438586  0.80611939     0.40400
H2084       H  0.05324168  0.88105172  0.82578725     0.35300
C2085       C  0.02596696  0.75702822  0.76512425    -0.26500
C2086       C  0.00438867  0.77397165  0.76685434    -0.14500
C2087       C  0.98327106  0.77084586  0.74933699     0.36100
C2088       C  0.98453670  0.75138632  0.72974949    -0.25900
C2089       C  0.00634936  0.73475736  0.72750447    -0.15200
C2090       C  0.02740113  0.73757844  0.74551877     0.37200
N2091       N  0.05066775  0.72168054  0.74425056    -0.89400
H2092       H  0.04220278  0.75946613  0.77863972     0.18300
H2093       H  0.96831441  0.74900684  0.71621214     0.18300
N2094       N  0.96058320  0.78740108  0.75166181    -0.88400
H2095       H  0.06648334  0.73424852  0.74093084     0.35700
H2096       H  0.05030107  0.70870390  0.72835946     0.40800
H2097       H  0.95189249  0.78347167  0.76979713     0.40400
H2098       H  0.94674926  0.78257619  0.73728451     0.35300
C2099       C  0.72858298  0.99826259  0.59580427    -0.26500
C2100       C  0.71398695  0.01634482  0.58117775    -0.14500
C2101       C  0.69795548  0.03474723  0.59425022     0.36100
C2102       C  0.69594406  0.03389597  0.62173149    -0.25900
C2103       C  0.70923833  0.01470800  0.63636312    -0.15200
C2104       C  0.72604536  0.99691323  0.62313384     0.37200
N2105       N  0.73918890  0.97602644  0.63652482    -0.89400
H2106       H  0.74074962  0.98395395  0.58576812     0.18300
H2107       H  0.68307716  0.04758203  0.63175049     0.18300
N2108       N  0.68336469  0.05381673  0.57949273    -0.88400
H2109       H  0.72543598  0.96511422  0.64686048     0.35700
H2110       H  0.75272090  0.98407662  0.64976885     0.40800
H2111       H  0.69682974  0.06608247  0.57016543     0.40400
H2112       H  0.67232977  0.06576599  0.59204015     0.35300
C2113       C  0.62786076  0.01752589  0.72189622    -0.26500
C2114       C  0.63954456  0.00125076  0.70286411    -0.14500
C2115       C  0.62363210  0.98426912  0.68783487     0.36100
C2116       C  0.59640771  0.98556898  0.69027766    -0.25900
C2117       C  0.58458349  0.00295380  0.70812986    -0.15200
C2118       C  0.60045441  0.01832071  0.72492568     0.37200
N2119       N  0.58874371  0.03571312  0.74386647    -0.89400
H2120       H  0.64005270  0.03044279  0.73363910     0.18300
H2121       H  0.58439235  0.97298496  0.67796294     0.18300
N2122       N  0.63509206  0.96571889  0.66997333    -0.88400
H2123       H  0.60313940  0.04669869  0.75355334     0.35700
H2124       H  0.57993846  0.02409074  0.75820433     0.40800
H2125       H  0.62905901  0.94691391  0.67544476     0.40400
H2126       H  0.62772663  0.96943318  0.65118288     0.35300
C2127       C  0.80485898  0.98118976  0.90604077    -0.26500
C2128       C  0.78881177  0.00057549  0.91718308    -0.14500
C2129       C  0.77744383  0.01987083  0.90097890     0.36100
C2130       C  0.78366893  0.02016662  0.87404799    -0.25900
C2131       C  0.80064628  0.00133778  0.86311607    -0.15200
C2132       C  0.81057934  0.98110922  0.87926590     0.37200
N2133       N  0.82575292  0.95973221  0.86896191    -0.89400
H2134       H  0.81310700  0.96594706  0.91833821     0.18300
H2135       H  0.77574155  0.03546576  0.86163362     0.18300
N2136       N  0.76078975  0.03978358  0.91208618    -0.88400
H2137       H  0.84353805  0.96675890  0.86188025     0.35700
H2138       H  0.81536577  0.95102948  0.85350623     0.40800
H2139       H  0.74365366  0.03059216  0.91838997     0.40400
H2140       H  0.75511577  0.05321681  0.89768931     0.35300
C2141       C  0.88485610  0.98402717  0.80335657    -0.26500
C2142       C  0.86971145  0.00514487  0.79438453    -0.14500
C2143       C  0.88183777  0.02557860  0.78041281     0.36100
C2144       C  0.90906098  0.02495795  0.77630722    -0.25900
C2145       C  0.92431852  0.00432843  0.78628489    -0.15200
C2146       C  0.91203658  0.98338738  0.79947498     0.37200
N2147       N  0.92711933  0.96127541  0.80836307    -0.89400
H2148       H  0.87541807  0.96815054  0.81380693     0.18300
H2149       H  0.91841734  0.04109775  0.76619439     0.18300
N2150       N  0.86672849  0.04742944  0.77133681    -0.88400
H2151       H  0.91485734  0.94678133  0.81600800     0.35700
H2152       H  0.93888140  0.96761931  0.82394310     0.40800
H2153       H  0.86911868  0.04874899  0.75100185     0.40400
H2154       H  0.87435793  0.06451559  0.77985554     0.35300
C2155       C  0.74985572  0.02831766  0.73500232    -0.26500
C2156       C  0.73381992  0.00620849  0.73143037    -0.14500
C2157       C  0.73848903  0.98350459  0.74667939     0.36100
C2158       C  0.75881295  0.98351801  0.76515016    -0.25900
C2159       C  0.77484508  0.00562734  0.76860408    -0.15200
C2160       C  0.77019560  0.02827720  0.75340491     0.37200
N2161       N  0.78538265  0.05170575  0.75673813    -0.89400
H2162       H  0.74647804  0.04579069  0.72340571     0.18300
H2163       H  0.76227813  0.96606961  0.77676404     0.18300
N2164       N  0.72359602  0.95990116  0.74320256    -0.88400
H2165       H  0.80488244  0.04751249  0.75226284     0.35700
H2166       H  0.78426663  0.05757988  0.77640835     0.40800
H2167       H  0.72457100  0.95425421  0.72345928     0.40400
H2168       H  0.70411118  0.96364126  0.74804961     0.35300
C2169       C  0.71397050  0.62594122  0.97266204    -0.26500
C2170       C  0.69348305  0.63623803  0.98810918    -0.14500
C2171       C  0.67962968  0.61904318  0.00482623     0.36100
C2172       C  0.68520357  0.59202928  0.00429128    -0.25900
C2173       C  0.70528284  0.58169444  0.98857828    -0.15200
C2174       C  0.72019329  0.59890145  0.97293016     0.37200
N2175       N  0.74112148  0.58885208  0.95694351    -0.89400
H2176       H  0.72484155  0.63894073  0.95992923     0.18300
H2177       H  0.67407980  0.57892395  0.01671528     0.18300
N2178       N  0.66034596  0.62910327  0.02279788    -0.88400
H2179       H  0.75030852  0.60409912  0.94684341     0.35700
H2180       H  0.73287177  0.57648368  0.94271932     0.40800
H2181       H  0.66999837  0.64134728  0.03620666     0.40400
H2182       H  0.65200234  0.61391386  0.03369211     0.35300
C2183       C  0.61145758  0.69778087  0.01082342    -0.26500
C2184       C  0.62594102  0.70778831  0.98971449    -0.14500
C2185       C  0.61299042  0.72335735  0.97073077     0.36100
C2186       C  0.58597808  0.72799851  0.97295668    -0.25900
C2187       C  0.57139482  0.71694126  0.99344701    -0.15200
C2188       C  0.58433881  0.70200675  0.01280699     0.37200
N2189       N  0.56997154  0.69147192  0.03461610    -0.89400
H2190       H  0.62131629  0.68603767  0.02552375     0.18300
H2191       H  0.57610947  0.73928655  0.95791291     0.18300
N2192       N  0.62639584  0.73346689  0.94827487    -0.88400
H2193       H  0.58266979  0.68252546  0.04798220     0.35700
H2194       H  0.55784790  0.67655283  0.02744772     0.40800
H2195       H  0.63533538  0.71782089  0.93838090     0.40400
H2196       H  0.64084935  0.74651013  0.95462921     0.35300
C2197       C  0.86748354  0.78390333  0.97627465    -0.26500
C2198       C  0.85515349  0.80038274  0.99473458    -0.14500
C2199       C  0.87055468  0.81320930  0.01391062     0.36100
C2200       C  0.89779890  0.81062942  0.01344286    -0.25900
C2201       C  0.91023922  0.79481707  0.99464434    -0.15200
C2202       C  0.89495924  0.78084906  0.97613183     0.37200
N2203       N  0.90739401  0.76483696  0.95646171    -0.89400
H2204       H  0.85574366  0.77406879  0.96147422     0.18300
H2205       H  0.90936659  0.82111651  0.02795607     0.18300
N2206       N  0.85854531  0.82878911  0.03408483    -0.88400
H2207       H  0.89346444  0.75698289  0.94358359     0.35700
H2208       H  0.91600905  0.74887717  0.96598603     0.40800
H2209       H  0.86603068  0.84785468  0.03292082     0.40400
H2210       H  0.86394706  0.82102532  0.05227255     0.35300
C2211       C  0.77335601  0.87774690  0.97387132    -0.26500
C2212       C  0.78258217  0.86493008  0.99637670    -0.14500
C2213       C  0.78777300  0.87970467  0.01944632     0.36100
C2214       C  0.78483147  0.90700394  0.01892285    -0.25900
C2215       C  0.77678904  0.91995840  0.99609589    -0.15200
C2216       C  0.77074855  0.90518007  0.97326005     0.37200
N2217       N  0.76336282  0.91723614  0.94885246    -0.89400
H2218       H  0.76976943  0.86650297  0.95609377     0.18300
H2219       H  0.78969759  0.91834586  0.03634745     0.18300
N2220       N  0.79693377  0.86788505  0.04337813    -0.88400
H2221       H  0.77809296  0.91315292  0.93519748     0.35700
H2222       H  0.76231740  0.93764507  0.95045724     0.40800
H2223       H  0.79764730  0.84744935  0.04191067     0.40400
H2224       H  0.78319566  0.87206745  0.05800604     0.35300
C2225       C  0.74545627  0.76709074  0.96796157    -0.26500
C2226       C  0.76155844  0.76908700  0.99021887    -0.14500
C2227       C  0.75769330  0.75156784  0.01131589     0.36100
C2228       C  0.73789619  0.73257586  0.00973707    -0.25900
C2229       C  0.72154778  0.73084594  0.98762117    -0.15200
C2230       C  0.72563924  0.74815977  0.96640810     0.37200
N2231       N  0.71033355  0.74658866  0.94286617    -0.89400
H2232       H  0.74828995  0.78042377  0.95168765     0.18300
H2233       H  0.73490010  0.71939363  0.02610261     0.18300
N2234       N  0.77290990  0.75325452  0.03490948    -0.88400
H2235       H  0.69076775  0.75017894  0.94753177     0.35700
H2236       H  0.71190571  0.72753804  0.93525875     0.40800
H2237       H  0.77100459  0.77222451  0.04264174     0.40400
H2238       H  0.79254612  0.75003193  0.03025023     0.35300
C2239       C  0.69623753  0.48048804  0.86730463    -0.26500
C2240       C  0.70523842  0.50225651  0.85323788    -0.14500
C2241       C  0.71927312  0.52222218  0.86645828     0.36100
C2242       C  0.72304420  0.52039220  0.89380713    -0.25900
C2243       C  0.71302352  0.49909032  0.90798915    -0.15200
C2244       C  0.70014121  0.47850513  0.89437496     0.37200
N2245       N  0.69125390  0.45508603  0.90718765    -0.89400
H2246       H  0.68583707  0.46491007  0.85711529     0.18300
H2247       H  0.73283330  0.53616788  0.90427371     0.18300
N2248       N  0.72819220  0.54495304  0.85244683    -0.88400
H2249       H  0.67079815  0.45525522  0.90698560     0.35700
H2250       H  0.69724750  0.45458120  0.92671878     0.40800
H2251       H  0.74315575  0.53893126  0.83982849     0.40400
H2252       H  0.73663522  0.55852432  0.86539330     0.35300
C2253       C  0.62379136  0.52074991  0.76887970    -0.26500
C2254       C  0.63543901  0.50193172  0.78527284    -0.14500
C2255       C  0.61971689  0.48241392  0.79690787     0.36100
C2256       C  0.59252307  0.48334469  0.79366566    -0.25900
C2257       C  0.58073880  0.50284414  0.77839229    -0.15200
C2258       C  0.59644223  0.52142986  0.76533788     0.37200
N2259       N  0.58453660  0.54147766  0.74952233    -0.89400
H2260       H  0.63592054  0.53560901  0.75982776     0.18300
H2261       H  0.58036487  0.46883059  0.80324585     0.18300
N2262       N  0.63147767  0.46185333  0.81218234    -0.88400
H2263       H  0.59884881  0.55358230  0.74132148     0.35700
H2264       H  0.57330461  0.55338496  0.76194114     0.40800
H2265       H  0.64325439  0.45072247  0.79956041     0.40400
H2266       H  0.61719211  0.44914492  0.81946110     0.35300
C2267       C  0.80508006  0.48193222  0.60832267    -0.26500
C2268       C  0.79546379  0.50215833  0.62444799    -0.14500
C2269       C  0.78170407  0.52332828  0.61290248     0.36100
C2270       C  0.77877013  0.52423072  0.58555920    -0.25900
C2271       C  0.78956385  0.50460636  0.56948469    -0.15200
C2272       C  0.80235345  0.48295416  0.58094193     0.37200
N2273       N  0.81209166  0.46186706  0.56477229    -0.89400
H2274       H  0.81534646  0.46556231  0.61716193     0.18300
H2275       H  0.76885816  0.54083470  0.57674457     0.18300
N2276       N  0.77167416  0.54476001  0.62820784    -0.88400
H2277       H  0.81946338  0.44669881  0.57641021     0.35700
H2278       H  0.82794477  0.46903636  0.55405195     0.40800
H2279       H  0.78693773  0.55270562  0.63939189     0.40400
H2280       H  0.75727266  0.53770427  0.64083650     0.35300
C2281       C  0.87488744  0.51503256  0.71216957    -0.26500
C2282       C  0.86425769  0.49729008  0.69380596    -0.14500
C2283       C  0.88100996  0.47915481  0.68112648     0.36100
C2284       C  0.90814700  0.48062028  0.68537924    -0.25900
C2285       C  0.91892231  0.49919877  0.70273777    -0.15200
C2286       C  0.90208437  0.51614993  0.71680446     0.37200
N2287       N  0.91269821  0.53511154  0.73490437    -0.89400
H2288       H  0.86205883  0.52882460  0.72206936     0.18300
H2289       H  0.92103277  0.46722379  0.67500024     0.18300
N2290       N  0.87036578  0.45939238  0.66388852    -0.88400
H2291       H  0.89769898  0.54602539  0.74366228     0.35700
H2292       H  0.92393998  0.54836786  0.72411725     0.40800
H2293       H  0.85851896  0.44711863  0.67517836     0.40400
H2294       H  0.88526491  0.44759635  0.65614930     0.35300
C2295       C  0.77032916  0.52018766  0.73897158    -0.26500
C2296       C  0.76914525  0.50092804  0.71920638    -0.14500
C2297       C  0.74802327  0.48310240  0.71885619     0.36100
C2298       C  0.72856764  0.48480685  0.73820285    -0.25900
C2299       C  0.72985073  0.50399026  0.75806233    -0.15200
C2300       C  0.75083120  0.52195638  0.75824237     0.37200
N2301       N  0.75205195  0.54243062  0.77760287    -0.89400
H2302       H  0.78624742  0.53424386  0.73918213     0.18300
H2303       H  0.71266109  0.47073587  0.73799958     0.18300
N2304       N  0.74661602  0.46283511  0.69929043    -0.88400
H2305       H  0.75225694  0.56045694  0.76787283     0.35700
H2306       H  0.76971278  0.54053750  0.78781767     0.40800
H2307       H  0.72894858  0.46497335  0.68913819     0.40400
H2308       H  0.74626930  0.44470943  0.70883660     0.35300
C2309       C  0.72442423  0.88515747  0.49124229    -0.26500
C2310       C  0.70579994  0.87405684  0.50813276    -0.14500
C2311       C  0.69282660  0.89028962  0.52651396     0.36100
C2312       C  0.69681260  0.91754490  0.52584873    -0.25900
C2313       C  0.71413580  0.92887053  0.50779972    -0.15200
C2314       C  0.72893177  0.91244694  0.49104827     0.37200
N2315       N  0.74713841  0.92359783  0.47275068    -0.89400
H2316       H  0.73458550  0.87264820  0.47732089     0.18300
H2317       H  0.68593332  0.93012810  0.53915819     0.18300
N2318       N  0.67531280  0.87903732  0.54544927    -0.88400
H2319       H  0.75527851  0.90892516  0.46086077     0.35700
H2320       H  0.76261436  0.93152787  0.48363326     0.40800
H2321       H  0.68638180  0.86685192  0.55763916     0.40400
H2322       H  0.66729961  0.89366102  0.55749361     0.35300
C2323       C  0.62190583  0.81996124  0.47521753    -0.26500
C2324       C  0.63632025  0.80661867  0.49446790    -0.14500
C2325       C  0.62338931  0.78889530  0.51116989     0.36100
C2326       C  0.59620695  0.78544519  0.50894371    -0.25900
C2327       C  0.58161657  0.79991517  0.49068724    -0.15200
C2328       C  0.59465547  0.81693709  0.47321605     0.37200
N2329       N  0.58030502  0.83074918  0.45325624    -0.89400
H2330       H  0.63191894  0.83329959  0.46210991     0.18300
H2331       H  0.58629636  0.77243518  0.52245274     0.18300
N2332       N  0.63757434  0.77541974  0.53129075    -0.88400
H2333       H  0.59311492  0.84066043  0.44075591     0.35700
H2334       H  0.56914757  0.84527914  0.46250774     0.40800
H2335       H  0.63494169  0.75523792  0.52845881     0.40400
H2336       H  0.62939831  0.78052361  0.54941836     0.35300
C2337       C  0.80529732  0.60239463  0.47189544    -0.26500
C2338       C  0.78966220  0.59021578  0.49080798    -0.14500
C2339       C  0.77649857  0.60567081  0.50973551     0.36100
C2340       C  0.78016021  0.63310077  0.50990865    -0.25900
C2341       C  0.79651947  0.64515096  0.49143572    -0.15200
C2342       C  0.80854771  0.62966110  0.47182936     0.37200
N2343       N  0.82412790  0.64161965  0.45180443    -0.89400
H2344       H  0.81510311  0.59063436  0.45706840     0.18300
H2345       H  0.77104135  0.64499248  0.52504786     0.18300
N2346       N  0.76077402  0.59338637  0.52955874    -0.88400
H2347       H  0.81604726  0.63666919  0.43356854     0.35700
H2348       H  0.84293870  0.63357938  0.45271911     0.40800
H2349       H  0.74435699  0.58535801  0.52026550     0.40400
H2350       H  0.75371363  0.60741611  0.54283678     0.35300
C2351       C  0.88033716  0.69992332  0.47602220    -0.26500
C2352       C  0.86494147  0.71379531  0.49423244    -0.14500
C2353       C  0.87719311  0.73144542  0.51178658     0.36100
C2354       C  0.90459202  0.73408402  0.51147903    -0.25900
C2355       C  0.91994498  0.71867012  0.49453240    -0.15200
C2356       C  0.90765876  0.70167978  0.47633935     0.37200
N2357       N  0.92289960  0.68645903  0.45802050    -0.89400
H2358       H  0.87098777  0.68681576  0.46204214     0.18300
H2359       H  0.91395925  0.74725085  0.52538718     0.18300
N2360       N  0.86210599  0.74571969  0.53074927    -0.88400
H2361       H  0.91073740  0.67699603  0.44442898     0.35700
H2362       H  0.93210348  0.67148290  0.46852788     0.40800
H2363       H  0.86552874  0.76575578  0.52795475     0.40400
H2364       H  0.86890372  0.74075420  0.54944989     0.35300
C2365       C  0.74969031  0.73840534  0.51556453    -0.26500
C2366       C  0.76976502  0.74007272  0.49683515    -0.14500
C2367       C  0.76987927  0.76121480  0.47897418     0.36100
C2368       C  0.75038299  0.78061314  0.48074660    -0.25900
C2369       C  0.73045677  0.77900363  0.49956781    -0.15200
C2370       C  0.73005974  0.75770635  0.51716738     0.37200
N2371       N  0.70998063  0.75602493  0.53683265    -0.89400
H2372       H  0.74962522  0.72221537  0.52929402     0.18300
H2373       H  0.75042220  0.79686361  0.46708374     0.18300
N2374       N  0.78948463  0.76263413  0.45881518    -0.88400
H2375       H  0.71246385  0.73916406  0.54820103     0.35700
H2376       H  0.71221857  0.77208902  0.54951469     0.40800
H2377       H  0.78688302  0.74644950  0.44636377     0.40400
H2378       H  0.78679798  0.77938546  0.44732519     0.35300
C2379       C  0.50926985  0.72947807  0.87032527    -0.26500
C2380       C  0.49343931  0.71046420  0.85812014    -0.14500
C2381       C  0.47466918  0.69680841  0.87312482     0.36100
C2382       C  0.47361068  0.70089854  0.90032784    -0.25900
C2383       C  0.49036055  0.71888295  0.91273056    -0.15200
C2384       C  0.50794846  0.73381530  0.89759259     0.37200
N2385       N  0.52523576  0.75232942  0.91008481    -0.89400
H2386       H  0.52363581  0.73995385  0.85878622     0.18300
H2387       H  0.45982277  0.68978736  0.91200283     0.18300
N2388       N  0.45704447  0.67855701  0.86068532    -0.88400
H2389       H  0.53690841  0.76169991  0.89614013     0.35700
H2390       H  0.53793282  0.74175348  0.92220224     0.40800
H2391       H  0.44521295  0.68920926  0.84779309     0.40400
H2392       H  0.44457030  0.67006831  0.87450464     0.35300
C2393       C  0.49118732  0.62983457  0.77192861    -0.26500
C2394       C  0.50764497  0.64031907  0.79144907    -0.14500
C2395       C  0.52345360  0.62320122  0.80642566     0.36100
C2396       C  0.52118193  0.59597584  0.80270283    -0.25900
C2397       C  0.50408976  0.58549034  0.78379823    -0.15200
C2398       C  0.48920949  0.60255045  0.76796524     0.37200
N2399       N  0.47138530  0.59210988  0.74871408    -0.89400
H2400       H  0.47890336  0.64290636  0.76057681     0.18300
H2401       H  0.53294799  0.58281926  0.81452267     0.18300
N2402       N  0.54165293  0.63353776  0.82541010    -0.88400
H2403       H  0.46196331  0.60730641  0.73869672     0.35700
H2404       H  0.45683270  0.58181418  0.75874274     0.40800
H2405       H  0.55567692  0.64438621  0.81521206     0.40400
H2406       H  0.55164954  0.61833534  0.83483985     0.35300
C2407       C  0.48214005  0.81221925  0.61540415    -0.26500
C2408       C  0.50280611  0.80099459  0.62962720    -0.14500
C2409       C  0.52250456  0.78683244  0.61595217     0.36100
C2410       C  0.52098239  0.78465438  0.58847435    -0.25900
C2411       C  0.50091902  0.79697250  0.57429065    -0.15200
C2412       C  0.48078864  0.81030405  0.58803686     0.37200
N2413       N  0.45871051  0.82212530  0.57506052    -0.89400
H2414       H  0.46700763  0.82304794  0.62572804     0.18300
H2415       H  0.53637813  0.77437201  0.57799999     0.18300
N2416       N  0.54482236  0.77544237  0.62887542    -0.88400
H2417       H  0.44180443  0.81315288  0.58228718     0.35700
H2418       H  0.45870195  0.81826849  0.55496034     0.40800
H2419       H  0.54474283  0.77901244  0.64903017     0.40400
H2420       H  0.56154203  0.78473588  0.62163318     0.35300
C2421       C  0.49564567  0.87972584  0.71923238    -0.26500
C2422       C  0.51166217  0.86876837  0.69957934    -0.14500
C2423       C  0.52872490  0.88527927  0.68542619     0.36100
C2424       C  0.52728008  0.91249217  0.68910693    -0.25900
C2425       C  0.50996385  0.92359955  0.70736852    -0.15200
C2426       C  0.49474875  0.90708707  0.72340391     0.37200
N2427       N  0.47766331  0.91812864  0.74295257    -0.89400
H2428       H  0.48279672  0.86708262  0.73038279     0.18300
H2429       H  0.53958299  0.92520825  0.67740017     0.18300
N2430       N  0.54721287  0.87434817  0.66710602    -0.88400
H2431       H  0.46806105  0.90324858  0.75320718     0.35700
H2432       H  0.46318377  0.92885358  0.73319826     0.40800
H2433       H  0.56038170  0.86284536  0.67777171     0.40400
H2434       H  0.55817210  0.88918399  0.65822399     0.35300
C2435       C  0.52556962  0.75784669  0.72763743    -0.26500
C2436       C  0.50355384  0.77392931  0.72432734    -0.14500
C2437       C  0.48163513  0.77065655  0.74098206     0.36100
C2438       C  0.48226836  0.75108945  0.76023965    -0.25900
C2439       C  0.50423380  0.73483098  0.76342419    -0.15200
C2440       C  0.52626443  0.73858511  0.74709988     0.37200
N2441       N  0.55001819  0.72404793  0.75060979    -0.89400
H2442       H  0.54258925  0.76066303  0.71528852     0.18300
H2443       H  0.46534820  0.74843485  0.77275941     0.18300
N2444       N  0.45830349  0.78630210  0.73866309    -0.88400
H2445       H  0.54644738  0.70419538  0.74692004     0.35700
H2446       H  0.55616984  0.72627914  0.77008338     0.40800
H2447       H  0.45933075  0.79944340  0.72305508     0.40400
H2448       H  0.45657444  0.79752177  0.75582658     0.35300
loop_ 
_geom_bond_atom_site_label_1 
_geom_bond_atom_site_label_2 
_geom_bond_distance 
_geom_bond_site_symmetry_2 
_ccdc_geom_bond_type 
C1            C2   1.405       .  A
C1            C6   1.405       .  A
C1         C2436   1.476       .  S
C2            C3   1.403       .  A
C2            H7   1.084       .  S
C3            C4   1.399       .  A
C3         C2408   1.482       .  S
C4            C5   1.403       .  A
C4            H8   1.084       .  S
C5            C6   1.403       .  A
C5         C2422   1.486       .  S
C6            H9   1.084       .  S
C10          C11   1.407       .  A
C10          C15   1.406       .  A
C10        C2439   1.482       .  S
C11          C12   1.404       .  A
C11          H16   1.083       .  S
C12          C13   1.400       .  A
C12        C2394   1.485       .  S
C13          C14   1.400       .  A
C13          H17   1.083       .  S
C14          C15   1.403       .  A
C14        C2380   1.482       .  S
C15          H18   1.084       .  S
C19          C20   1.410       .  A
C19          C24   1.409       .  A
C19        C2366   1.485       .  S
C20          C21   1.404       .  A
C20          H25   1.083       .  S
C21          C22   1.400       .  A
C21        C2352   1.486       .  S
C22          C23   1.397       .  A
C22          H26   1.084       .  S
C23          C24   1.402       .  A
C23        C2341   1.481       .  S
C24          H27   1.084       .  S
C28          C29   1.405       .  A
C28          C33   1.406       .  A
C28        C2369   1.481       .  S
C29          C30   1.403       .  A
C29          H34   1.084       .  S
C30          C31   1.402       .  A
C30        C2324   1.483       .  S
C31          C32   1.404       .  A
C31          H35   1.084       .  S
C32          C33   1.403       .  A
C32        C2310   1.485       .  S
C33          H36   1.084       .  S
C37          C38   1.409       .  A
C37          C42   1.405       .  A
C37        C2296   1.482       .  S
C38          C39   1.405       .  A
C38          H43   1.084       .  S
C39          C40   1.404       .  A
C39        C2282   1.490       .  S
C40          C41   1.403       .  A
C40          H44   1.084       .  S
C41          C42   1.400       .  A
C41        C2268   1.481       .  S
C42          H45   1.083       .  S
C46          C47   1.406       .  A
C46          C51   1.408       .  A
C46        C2299   1.482       .  S
C47          C48   1.400       .  A
C47          H52   1.083       .  S
C48          C49   1.400       .  A
C48        C2240   1.480       .  S
C49          C50   1.403       .  A
C49          H53   1.084       .  S
C50          C51   1.403       .  A
C50        C2254   1.483       .  S
C51          H54   1.084       .  S
C55          C56   1.410       .  A
C55          C60   1.406       .  A
C55        C2226   1.482       .  S
C56          C57   1.407       .  A
C56          H61   1.083       .  S
C57          C58   1.402       .  A
C57        C2198   1.488       .  S
C58          C59   1.397       .  A
C58          H62   1.084       .  S
C59          C60   1.400       .  A
C59        C2212   1.476       .  S
C60          H63   1.084       .  S
C64          C65   1.406       .  A
C64          C69   1.406       .  A
C64        C2229   1.483       .  S
C65          C66   1.404       .  A
C65          H70   1.083       .  S
C66          C67   1.406       .  A
C66        C2184   1.490       .  S
C67          C68   1.409       .  A
C67          H71   1.083       .  S
C68          C69   1.407       .  A
C68        C2170   1.498       .  S
C69          H72   1.083       .  S
C73          C74   1.406       .  A
C73          C78   1.404       .  A
C73        C2159   1.478       .  S
C74          C75   1.403       .  A
C74          H79   1.084       .  S
C75          C76   1.402       .  A
C75        C2142   1.481       .  S
C76          C77   1.402       .  A
C76          H80   1.083       .  S
C77          C78   1.402       .  A
C77        C2131   1.482       .  S
C78          H81   1.084       .  S
C82          C83   1.406       .  A
C82          C87   1.407       .  A
C82        C2156   1.482       .  S
C83          C84   1.402       .  A
C83          H88   1.082       .  S
C84          C85   1.400       .  A
C84        C2103   1.485       .  S
C85          C86   1.402       .  A
C85          H89   1.084       .  S
C86          C87   1.404       .  A
C86        C2114   1.485       .  S
C87          H90   1.083       .  S
C91          C92   1.406       .  A
C91          C96   1.407       .  A
C91        C2086   1.479       .  S
C92          C93   1.400       .  A
C92          H97   1.084       .  S
C93          C94   1.399       .  A
C93        C2072   1.478       .  S
C94          C95   1.403       .  A
C94          H98   1.084       .  S
C95          C96   1.407       .  A
C95        C2058   1.487       .  S
C96          H99   1.084       .  S
C100        C101   1.401       .  A
C100        C105   1.403       .  A
C100       C2033   1.486   1_455  S
C101        C102   1.401       .  A
C101        H106   1.084       .  S
C102        C103   1.404       .  A
C102       C2044   1.484       .  S
C103        C104   1.407       .  A
C103        H107   1.084       .  S
C104        C105   1.408       .  A
C104       C2089   1.482       .  S
C105        H108   1.084       .  S
C109        C110   1.406       .  A
C109        C114   1.406       .  A
C109       C2016   1.485       .  S
C110        C111   1.404       .  A
C110        H115   1.084       .  S
C111        C112   1.402       .  A
C111       C2002   1.482       .  S
C112        C113   1.402       .  A
C112        H116   1.085       .  S
C113        C114   1.406       .  A
C113       C1988   1.485       .  S
C114        H117   1.083       .  S
C118        C119   1.406       .  A
C118        C123   1.410       .  A
C118       C2019   1.486       .  S
C119        C120   1.401       .  A
C119        H124   1.083       .  S
C120        C121   1.400       .  A
C120       C1974   1.480       .  S
C121        C122   1.404       .  A
C121        H125   1.084       .  S
C122        C123   1.409       .  A
C122       C1960   1.491       .  S
C123        H126   1.084       .  S
O127       Cu135   1.997       .  S
O127        C137   1.277       .  A
O128       Cu135   1.997       .  S
O128        C138   1.277       .  A
O129       Cu135   1.981   1_565  S
O129        C139   1.275       .  A
O130       Cu135   1.996       .  S
O130        C140   1.276       .  A
O131       Cu136   2.021       .  S
O131        C140   1.279       .  A
O132       Cu136   2.025   1_565  S
O132        C139   1.279       .  A
O133       Cu136   2.019       .  S
O133        C138   1.278       .  A
O134       Cu136   2.017       .  S
O134        C137   1.279       .  A
Cu135      Cu136   2.375       .  S
C137       C1949   1.476       .  S
C138       C2117   1.478       .  S
C139       C2425   1.474       .  S
C140       C1991   1.473       .  S
C141        C142   1.406       .  A
C141        C146   1.406       .  A
C141       C1935   1.479       .  S
C142        C143   1.401       .  A
C142        H147   1.083       .  S
C143        C144   1.400       .  A
C143       C1918   1.480       .  S
C144        C145   1.405       .  A
C144        H148   1.084       .  S
C145        C146   1.406       .  A
C145       C1904   1.491       .  S
C146        H149   1.083       .  S
C150        C151   1.406       .  A
C150        C155   1.403   1_655  A
C150       C1879   1.489       .  S
C151        C152   1.409   1_655  A
C151        H156   1.084       .  S
C152        C153   1.405       .  A
C152       C1932   1.482       .  S
C153        C154   1.400       .  A
C153        H157   1.084       .  S
C154        C155   1.400       .  A
C154       C1893   1.479       .  S
C155        H158   1.084       .  S
C159        C160   1.411       .  A
C159        C164   1.413       .  A
C159       C1862   1.492       .  S
C160        C161   1.405       .  A
C160        H165   1.084       .  S
C161        C162   1.400       .  A
C161       C1848   1.487       .  S
C162        C163   1.402       .  A
C162        H166   1.084       .  S
C163        C164   1.407       .  A
C163       C1834   1.492       .  S
C164        H167   1.083       .  S
C168        C169   1.409       .  A
C168        C173   1.410       .  A
C168       C1865   1.491       .  S
C169        C170   1.402       .  A
C169        H174   1.083       .  S
C170        C171   1.399       .  A
C170       C1820   1.483       .  S
C171        C172   1.403       .  A
C171        H175   1.084       .  S
C172        C173   1.408       .  A
C172       C1946   1.489   1_545  S
C173        H176   1.083       .  S
O177       Cu185   2.024       .  S
O177        C187   1.279       .  A
O178       Cu185   2.024   1_565  S
O178        C188   1.279       .  A
O179       Cu185   2.026   1_655  S
O179        C189   1.279       .  A
O180       Cu185   2.036       .  S
O180        C190   1.281       .  A
O181       Cu186   1.996       .  S
O181        C190   1.276       .  A
O182       Cu186   1.999   1_655  S
O182        C189   1.276       .  A
O183       Cu186   1.997   1_565  S
O183        C188   1.276       .  A
O184       Cu186   1.993       .  S
O184        C187   1.276       .  A
Cu185      Cu186   2.374       .  S
C187       C1907   1.478       .  S
C188       C2075   1.473       .  S
C189       C2145   1.475       .  S
C190       C1837   1.482       .  S
C191        C192   1.407       .  A
C191        C196   1.409       .  A
C191       C1806   1.487       .  S
C192        C193   1.402       .  A
C192        H197   1.084       .  S
C193        C194   1.402       .  A
C193       C1792   1.484       .  S
C194        C195   1.404       .  A
C194        H198   1.084       .  S
C195        C196   1.404       .  A
C195       C1778   1.487       .  S
C196        H199   1.083       .  S
C200        C201   1.410       .  A
C200        C205   1.409       .  A
C200       C1809   1.488       .  S
C201        C202   1.404       .  A
C201        H206   1.084       .  S
C202        C203   1.402       .  A
C202       C1750   1.490       .  S
C203        C204   1.402       .  A
C203        H207   1.084       .  S
C204        C205   1.403       .  A
C204       C1764   1.485       .  S
C205        H208   1.083       .  S
O209       Cu217   1.999   1_655  S
O209        C219   1.277       .  A
O210       Cu217   1.996       .  S
O210        C220   1.276       .  A
O211       Cu217   2.002   1_655  S
O211        C221   1.277       .  A
O212       Cu217   1.999       .  S
O212        C222   1.276       .  A
O213       Cu218   2.029   1_455  S
O213        C222   1.279       .  A
O214       Cu218   2.033       .  S
O214        C221   1.281       .  A
O215       Cu218   2.014       .  S
O215        C220   1.278   1_655  A
O216       Cu218   2.017       .  S
O216        C219   1.278       .  A
Cu217      Cu218   2.370   1_455  S
C219       C2047   1.473       .  S
C220       C1890   1.472       .  S
C221       C2285   1.483       .  S
C222       C1781   1.476       .  S
O223       Cu231   2.013       .  S
O223        C233   1.277       .  A
O224       Cu231   2.019       .  S
O224        C234   1.278       .  A
O225       Cu231   2.032       .  S
O225        C235   1.281       .  A
O226       Cu231   2.017       .  S
O226        C236   1.279       .  A
O227       Cu232   1.997       .  S
O227        C236   1.276       .  A
O228       Cu232   1.989       .  S
O228        C235   1.274       .  A
O229       Cu232   1.993       .  S
O229        C234   1.277       .  A
O230       Cu232   2.002       .  S
O230        C233   1.278       .  A
Cu231      Cu232   2.376       .  S
C233       C1767   1.474       .  S
C234       C2257   1.472       .  S
C235       C1977   1.472       .  S
C236       C2397   1.476       .  S
C237        C238   1.408       .  A
C237        C242   1.406       .  A
C237       C1736   1.483       .  S
C238        C239   1.406       .  A
C238        H243   1.084       .  S
C239        C240   1.405       .  A
C239       C1722   1.493       .  S
C240        C241   1.404       .  A
C240        H244   1.083       .  S
C241        C242   1.402       .  A
C241       C1708   1.486       .  S
C242        H245   1.084       .  S
C246        C247   1.407       .  A
C246        C251   1.410       .  A
C246       C1739   1.487       .  S
C247        C248   1.401       .  A
C247        H252   1.084       .  S
C248        C249   1.398       .  A
C248       C1694   1.477       .  S
C249        C250   1.402       .  A
C249        H253   1.084       .  S
C250        C251   1.406       .  A
C250       C1680   1.486       .  S
C251        H254   1.084       .  S
O255       Cu263   1.994       .  S
O255        C265   1.276       .  A
O256       Cu263   1.997       .  S
O256        C266   1.276       .  A
O257       Cu263   1.993   1_554  S
O257        C267   1.276       .  A
O258       Cu263   1.991       .  S
O258        C268   1.276       .  A
O259       Cu264   2.016       .  S
O259        C268   1.278       .  A
O260       Cu264   2.023   1_554  S
O260        C267   1.279       .  A
O261       Cu264   2.036       .  S
O261        C266   1.281       .  A
O262       Cu264   2.032       .  S
O262        C265   1.280       .  A
Cu263      Cu264   2.375       .  S
C265       C1669   1.478       .  S
C266       C2187   1.480       .  S
C267       C1711   1.473       .  S
C268       C2383   1.472       .  S
C269        C270   1.408       .  A
C269        C274   1.407   1_554  A
C269       C1652   1.486       .  S
C270        C271   1.403   1_554  A
C270        H275   1.084       .  S
C271        C272   1.403       .  A
C271       C1627   1.488   1_556  S
C272        C273   1.405       .  A
C272        H276   1.084       .  S
C273        C274   1.403       .  A
C273       C1638   1.490       .  S
C274        H277   1.082       .  S
C278        C279   1.407       .  A
C278        C283   1.408       .  A
C278       C1655   1.483       .  S
C279        C280   1.401       .  A
C279        H284   1.084   1_556  S
C280        C281   1.400       .  A
C280       C1610   1.481       .  S
C281        C282   1.405       .  A
C281        H285   1.083       .  S
C282        C283   1.405       .  A
C282       C1666   1.492       .  S
C283        H286   1.083       .  S
C287        C288   1.407   1_455  A
C287        C292   1.406       .  A
C287       C1599   1.479       .  S
C288        C289   1.404       .  A
C288        H293   1.084       .  S
C289        C290   1.402       .  A
C289       C1568   1.483       .  S
C290        C291   1.401       .  A
C290        H294   1.084       .  S
C291        C292   1.404   1_655  A
C291       C1582   1.483       .  S
C292        H295   1.083       .  S
C296        C297   1.403       .  A
C296        C301   1.404       .  A
C296       C1557   1.483       .  S
C297        C298   1.401       .  A
C297        H302   1.084       .  S
C298        C299   1.403       .  A
C298       C1543   1.481       .  S
C299        C300   1.406       .  A
C299        H303   1.083       .  S
C300        C301   1.405       .  A
C300       C1596   1.482       .  S
C301        H304   1.084       .  S
O305       Cu313   2.021   1_554  S
O305        C315   1.279       .  A
O306       Cu313   2.010       .  S
O306        C316   1.277       .  A
O307       Cu313   2.032   1_455  S
O307        C317   1.280       .  A
O308       Cu313   2.030       .  S
O308        C318   1.280       .  A
O309       Cu314   1.999       .  S
O309        C318   1.277       .  A
O310       Cu314   1.995   1_455  S
O310        C317   1.276       .  A
O311       Cu314   2.008       .  S
O311        C316   1.278       .  A
O312       Cu314   2.003   1_554  S
O312        C315   1.277       .  A
Cu313      Cu314   2.374       .  S
C315       C1571   1.476       .  S
C316       C2061   1.474       .  S
C317       C1624   1.481       .  S
C318       C2201   1.479       .  S
C319        C320   1.411       .  A
C319        C324   1.411       .  A
C319       C1526   1.492       .  S
C320        C321   1.403       .  A
C320        H325   1.082       .  S
C321        C322   1.401       .  A
C321       C1512   1.488       .  S
C322        C323   1.398       .  A
C322        H326   1.084       .  S
C323        C324   1.403       .  A
C323       C1501   1.485       .  S
C324        H327   1.083       .  S
C328        C329   1.409       .  A
C328        C333   1.409       .  A
C328       C1529   1.490       .  S
C329        C330   1.402       .  A
C329        H334   1.083       .  S
C330        C331   1.400       .  A
C330       C1484   1.481       .  S
C331        C332   1.404       .  A
C331        H335   1.084       .  S
C332        C333   1.404       .  A
C332       C1470   1.486       .  S
C333        H336   1.083       .  S
O337       Cu345   2.012       .  S
O337        C347   1.277       .  A
O338       Cu345   2.022   1_655  S
O338        C348   1.279       .  A
O339       Cu345   2.023       .  S
O339        C349   1.279       .  A
O340       Cu345   2.025   1_655  S
O340        C350   1.280       .  A
O341       Cu346   1.993   1_655  S
O341        C350   1.275       .  A
O342       Cu346   1.999       .  S
O342        C349   1.277       .  A
O343       Cu346   1.986   1_655  S
O343        C348   1.275       .  A
O344       Cu346   1.999       .  S
O344        C347   1.277       .  A
Cu345      Cu346   2.375       .  S
C347       C1498   1.474       .  S
C348       C2355   1.473       .  S
C349       C2030   1.474   1_455  S
C350       C1540   1.473       .  S
O351       Cu359   2.004       .  S
O351        C361   1.278       .  A
O352       Cu359   2.003       .  S
O352        C362   1.277       .  A
O353       Cu359   1.994       .  S
O353        C363   1.276       .  A
O354       Cu359   1.991       .  S
O354        C364   1.275       .  A
O355       Cu360   2.028       .  S
O355        C364   1.280       .  A
O356       Cu360   2.025       .  S
O356        C363   1.279       .  A
O357       Cu360   2.014       .  S
O357        C362   1.278       .  A
O358       Cu360   2.017       .  S
O358        C361   1.278       .  A
Cu359      Cu360   2.375       .  S
C361       C2411   1.474       .  S
C362       C1683   1.472       .  S
C363       C1473   1.479       .  S
C364       C2327   1.476       .  S
C365        C366   1.408       .  A
C365        C370   1.404       .  A
C365       C1456   1.480       .  S
C366        C367   1.407       .  A
C366        H371   1.084       .  S
C367        C368   1.403       .  A
C367       C1428   1.486       .  S
C368        C369   1.400       .  A
C368        H372   1.084       .  S
C369        C370   1.400       .  A
C369       C1442   1.478       .  S
C370        H373   1.084       .  S
C374        C375   1.407       .  A
C374        C379   1.403       .  A
C374       C1459   1.479       .  S
C375        C376   1.406       .  A
C375        H380   1.084       .  S
C376        C377   1.403       .  A
C376       C1414   1.488       .  S
C377        C378   1.403       .  A
C377        H381   1.084       .  S
C378        C379   1.401       .  A
C378       C1400   1.481       .  S
C379        H382   1.084       .  S
O383       Cu391   2.031       .  S
O383        C393   1.280       .  A
O384       Cu391   2.030       .  S
O384        C394   1.280       .  A
O385       Cu391   2.019   1_565  S
O385        C395   1.278       .  A
O386       Cu391   2.016       .  S
O386        C396   1.278       .  A
O387       Cu392   2.004       .  S
O387        C396   1.277       .  A
O388       Cu392   2.005   1_565  S
O388        C395   1.278       .  A
O389       Cu392   2.004       .  S
O389        C394   1.277       .  A
O390       Cu392   2.002       .  S
O390        C393   1.276       .  A
Cu391      Cu392   2.372       .  S
C393       C1386   1.477       .  S
C394       C1375   1.484       .  S
C395       C1697   1.474       .  S
C396       C1431   1.476       .  S
O397       Cu405   2.025       .  S
O397        C407   1.280       .  A
O398       Cu405   2.036       .  S
O398        C408   1.281       .  A
O399       Cu405   2.022   1_554  S
O399        C409   1.278       .  A
O400       Cu405   2.026       .  S
O400        C410   1.279       .  A
O401       Cu406   2.007       .  S
O401        C410   1.278       .  A
O402       Cu406   2.002   1_554  S
O402        C409   1.277       .  A
O403       Cu406   1.995       .  S
O403        C408   1.276       .  A
O404       Cu406   2.004       .  S
O404        C407   1.277       .  A
Cu405      Cu406   2.372       .  S
C407       C1361   1.481       .  S
C408       C1347   1.481       .  S
C409       C1403   1.474       .  S
C410       C1963   1.481       .  S
C411        C412   1.410       .  A
C411        C416   1.408       .  A
C411       C1330   1.486       .  S
C412        C413   1.406       .  A
C412        H417   1.083       .  S
C413        C414   1.402       .  A
C413       C1305   1.491       .  S
C414        C415   1.402       .  A
C414        H418   1.083       .  S
C415        C416   1.403       .  A
C415       C1316   1.488       .  S
C416        H419   1.084       .  S
C420        C421   1.408       .  A
C420        C425   1.411       .  A
C420       C1333   1.487       .  S
C421        C422   1.401       .  A
C421        H426   1.083       .  S
C422        C423   1.399       .  A
C422       C1288   1.479       .  S
C423        C424   1.399       .  A
C423        H427   1.085       .  S
C424        C425   1.407       .  A
C424       C1274   1.485       .  S
C425        H428   1.083       .  S
O429       Cu437   2.023       .  S
O429        C439   1.279       .  A
O430       Cu437   2.029       .  S
O430        C440   1.279       .  A
O431       Cu437   2.035       .  S
O431        C441   1.281       .  A
O432       Cu437   2.026   1_455  S
O432        C442   1.279       .  A
O433       Cu438   2.000   1_455  S
O433        C442   1.277       .  A
O434       Cu438   1.989       .  S
O434        C441   1.276       .  A
O435       Cu438   1.994       .  S
O435        C440   1.277       .  A
O436       Cu438   2.004       .  S
O436        C439   1.277       .  A
Cu437      Cu438   2.372       .  S
C439       C1260   1.478       .  S
C440       C1876   1.481       .  S
C441       C1246   1.479       .  S
C442       C1302   1.481       .  S
O443       Cu451   2.013       .  S
O443        C453   1.278       .  A
O444       Cu451   2.011   1_565  S
O444        C454   1.278       .  A
O445       Cu451   2.004       .  S
O445        C455   1.277       .  A
O446       Cu451   2.002       .  S
O446        C456   1.276       .  A
O447       Cu452   2.026       .  S
O447        C456   1.279       .  A
O448       Cu452   2.028       .  S
O448        C455   1.280       .  A
O449       Cu452   2.020   1_565  S
O449        C454   1.278       .  A
O450       Cu452   2.020       .  S
O450        C453   1.279       .  A
Cu451      Cu452   2.370       .  S
C453       C1277   1.479       .  S
C454       C1487   1.475       .  S
C455       C1232   1.479       .  S
C456       C1823   1.476       .  S
C457        C458   1.410       .  A
C457        C462   1.411       .  A
C457       C1218   1.489       .  S
C458        C459   1.402       .  A
C458        H463   1.084       .  S
C459        C460   1.402       .  A
C459       C1204   1.486       .  S
C460        C461   1.403       .  A
C460        H464   1.084       .  S
C461        C462   1.406       .  A
C461       C1190   1.490       .  S
C462        H465   1.083       .  S
C466        C467   1.406       .  A
C466        C471   1.407       .  A
C466       C1221   1.484       .  S
C467        C468   1.404       .  A
C467        H472   1.084       .  S
C468        C469   1.401       .  A
C468       C1176   1.485       .  S
C469        C470   1.404       .  A
C469        H473   1.083       .  S
C470        C471   1.407       .  A
C470       C1358   1.491       .  S
C471        H474   1.083       .  S
C475        C476   1.408       .  A
C475        C480   1.410       .  A
C475       C1162   1.485       .  S
C476        C477   1.400       .  A
C476        H481   1.084       .  S
C477        C478   1.401       .  A
C477       C1134   1.483       .  S
C478        C479   1.404       .  A
C478        H482   1.084       .  S
C479        C480   1.408       .  A
C479       C1151   1.491       .  S
C480        H483   1.083       .  S
C484        C485   1.407       .  A
C484        C489   1.409       .  A
C484       C1165   1.486       .  S
C485        C486   1.405       .  A
C485        H490   1.084       .  S
C486        C487   1.405       .  A
C486       C1235   1.490       .  S
C487        C488   1.403       .  A
C487        H491   1.084       .  S
C488        C489   1.403       .  A
C488       C1389   1.486       .  S
C489        H492   1.084       .  S
C493        C494   1.407       .  A
C493        C498   1.409       .  A
C493       C1120   1.483       .  S
C494        C495   1.403       .  A
C494        H499   1.083       .  S
C495        C496   1.403       .  A
C495       C1092   1.487       .  S
C496        C497   1.400       .  A
C496        H500   1.084       .  S
C497        C498   1.403       .  A
C497       C1106   1.483       .  S
C498        H501   1.084       .  S
C502        C503   1.399       .  A
C502        C507   1.399       .  A
C502       C1078   1.476       .  S
C503        C504   1.405       .  A
C503        H508   1.084       .  S
C504        C505   1.408       .  A
C504       C1123   1.482       .  S
C505        C506   1.407       .  A
C505        H509   1.084       .  S
C506        C507   1.403       .  A
C506       C1263   1.487       .  S
C507        H510   1.084       .  S
O511       Cu519   2.034   1_455  S
O511        C521   1.281       .  A
O512       Cu519   2.026       .  S
O512        C522   1.279       .  A
O513       Cu519   2.021   1_565  S
O513        C523   1.278       .  A
O514       Cu519   2.019       .  S
O514        C524   1.278       .  A
O515       Cu520   2.009       .  S
O515        C524   1.277       .  A
O516       Cu520   2.005   1_565  S
O516        C523   1.277       .  A
O517       Cu520   2.001       .  S
O517        C522   1.277       .  A
O518       Cu520   1.992   1_455  S
O518        C521   1.275       .  A
Cu519      Cu520   2.374       .  S
C521       C1148   1.481       .  S
C522       C1067   1.479       .  S
C523       C1585   1.477       .  S
C524       C1109   1.475       .  S
O525       Cu533   2.000   1_554  S
O525        C535   1.277       .  A
O526       Cu533   2.009       .  S
O526        C536   1.278       .  A
O527       Cu533   1.992   1_565  S
O527        C537   1.275       .  A
O528       Cu533   1.991       .  S
O528        C538   1.275       .  A
O529       Cu534   2.044       .  S
O529        C538   1.282       .  A
O530       Cu534   2.032   1_565  S
O530        C537   1.280       .  A
O531       Cu534   2.016       .  S
O531        C536   1.278       .  A
O532       Cu534   2.024   1_554  S
O532        C535   1.279       .  A
Cu533      Cu534   2.374       .  S
C535       C1137   1.477       .  S
C536       C1851   1.477       .  S
C537       C1641   1.480       .  S
C538       C1193   1.479       .  S
O539       Cu547   2.000       .  S
O539        C549   1.277       .  A
O540       Cu547   1.987   1_554  S
O540        C550   1.276       .  A
O541       Cu547   1.995   1_655  S
O541        C551   1.276       .  A
O542       Cu547   1.992       .  S
O542        C552   1.276       .  A
O543       Cu548   2.029       .  S
O543        C552   1.280       .  A
O544       Cu548   2.016   1_655  S
O544        C551   1.278       .  A
O545       Cu548   2.025   1_554  S
O545        C550   1.279       .  A
O546       Cu548   2.021       .  S
O546        C549   1.278       .  A
Cu547      Cu548   2.375       .  S
C549       C1921   1.474       .  S
C550       C1095   1.476       .  S
C551       C1050   1.473       .  S
C552       C1207   1.475       .  S
C553        C554   1.417       .  A
C553        C558   1.418       .  A
C553       C1036   1.517       .  S
C554        C555   1.404       .  A
C554        H559   1.077       .  S
C555        C556   1.397       .  A
C555       C1011   1.485       .  S
C556        C557   1.397       .  A
C556        H560   1.084       .  S
C557        C558   1.402       .  A
C557       C1022   1.483       .  S
C558        H561   1.079       .  S
C562        C563   1.419       .  A
C562        C567   1.423       .  A
C562       C1039   1.525       .  S
C563        C564   1.403       .  A
C563        H568   1.076       .  S
C564        C565   1.398       .  A
C564        C994   1.490       .  S
C565        C566   1.398       .  A
C565        H569   1.084       .  S
C566        C567   1.405       .  A
C566        C980   1.490       .  S
C567        H570   1.078       .  S
O571       Cu579   1.999       .  S
O571        C581   1.277       .  A
O572       Cu579   1.998   1_455  S
O572        C582   1.277       .  A
O573       Cu579   2.000   1_455  S
O573        C583   1.276       .  A
O574       Cu579   1.998       .  S
O574        C584   1.276       .  A
O575       Cu580   2.011       .  S
O575        C584   1.277       .  A
O576       Cu580   2.015   1_455  S
O576        C583   1.278       .  A
O577       Cu580   2.019   1_455  S
O577        C582   1.279       .  A
O578       Cu580   2.022       .  S
O578        C581   1.279       .  A
Cu579      Cu580   2.373       .  S
C581        C966   1.474       .  S
C582       C1008   1.480       .  S
C583       C1554   1.474       .  S
C584       C1081   1.467       .  S
O585       Cu593   2.031       .  S
O585        C595   1.280       .  A
O586       Cu593   2.031   1_554  S
O586        C596   1.280       .  A
O587       Cu593   2.021       .  S
O587        C597   1.278       .  A
O588       Cu593   2.018       .  S
O588        C598   1.278       .  A
O589       Cu594   1.998       .  S
O589        C598   1.277       .  A
O590       Cu594   1.998       .  S
O590        C597   1.277       .  A
O591       Cu594   2.001   1_554  S
O591        C596   1.277       .  A
O592       Cu594   2.002       .  S
O592        C595   1.277       .  A
Cu593      Cu594   2.374       .  S
C595       C1753   1.479       .  S
C596        C983   1.483       .  S
C597       C1613   1.473       .  S
C598       C1179   1.476       .  S
O599       Cu607   2.029       .  S
O599        C609   1.280       .  A
O600       Cu607   2.021       .  S
O600        C610   1.279       .  A
O601       Cu607   2.027       .  S
O601        C611   1.279       .  A
O602       Cu607   2.030       .  S
O602        C612   1.280       .  A
O603       Cu608   1.985       .  S
O603        C612   1.274       .  A
O604       Cu608   1.996       .  S
O604        C611   1.277       .  A
O605       Cu608   2.007       .  S
O605        C610   1.277       .  A
O606       Cu608   1.999       .  S
O606        C609   1.277       .  A
Cu607      Cu608   2.373       .  S
C609       C1025   1.480       .  S
C610       C1795   1.477       .  S
C611       C1319   1.480       .  S
C612       C1515   1.477       .  S
O613       Cu621   1.999       .  S
O613        C623   1.277       .  A
O614       Cu621   1.990       .  S
O614        C624   1.277       .  A
O615       Cu621   1.996       .  S
O615        C625   1.276       .  A
O616       Cu621   1.988       .  S
O616        C626   1.274       .  A
O617       Cu622   2.024       .  S
O617        C626   1.280       .  A
O618       Cu622   2.017       .  S
O618        C625   1.278       .  A
O619       Cu622   2.014       .  S
O619        C624   1.277       .  A
O620       Cu622   2.009       .  S
O620        C623   1.277       .  A
Cu621      Cu622   2.377       .  S
C623       C1291   1.471       .  S
C624        C952   1.472       .  S
C625       C2005   1.471       .  S
C626       C1445   1.469       .  S
O627       Cu635   2.028       .  S
O627        C637   1.280       .  A
O628       Cu635   2.028       .  S
O628        C638   1.279       .  A
O629       Cu635   2.034       .  S
O629        C639   1.281       .  A
O630       Cu635   2.035       .  S
O630        C640   1.280       .  A
O631       Cu636   1.995       .  S
O631        C640   1.277       .  A
O632       Cu636   1.992       .  S
O632        C639   1.276       .  A
O633       Cu636   2.008       .  S
O633        C638   1.278       .  A
O634       Cu636   1.998       .  S
O634        C637   1.276       .  A
Cu635      Cu636   2.372       .  S
C637       C1417   1.478       .  S
C638       C1725   1.485       .  S
C639        C997   1.483       .  S
C640        C938   1.483       .  S
C641        C642   1.410       .  A
C641        C646   1.406       .  A
C641        C924   1.485       .  S
C642        C643   1.408       .  A
C642        H647   1.083       .  S
C643        C644   1.407       .  A
C643        C941   1.499       .  S
C644        C645   1.402       .  A
C644        H648   1.083       .  S
C645        C646   1.400       .  A
C645        C910   1.485       .  S
C646        H649   1.084       .  S
C650        C651   1.408       .  A
C650        C655   1.409       .  A
C650        C927   1.486       .  S
C651        C652   1.402       .  A
C651        H656   1.084       .  S
C652        C653   1.402       .  A
C652        C896   1.483       .  S
C653        C654   1.402       .  A
C653        H657   1.084       .  S
C654        C655   1.404       .  A
C654        C969   1.486       .  S
C655        H658   1.083       .  S
O659       Cu667   2.001   1_554  S
O659        C669   1.277       .  A
O660       Cu667   2.002       .  S
O660        C670   1.277       .  A
O661       Cu667   1.988       .  S
O661        C671   1.275       .  A
O662       Cu667   1.998       .  S
O662        C672   1.276       .  A
O663       Cu668   2.039       .  S
O663        C672   1.282       .  A
O664       Cu668   2.052       .  S
O664        C671   1.283       .  A
O665       Cu668   2.022       .  S
O665        C670   1.278       .  A
O666       Cu668   2.025   1_554  S
O666        C669   1.278       .  A
Cu667      Cu668   2.372       .  S
C669        C913   1.477       .  S
C670       C2243   1.475       .  S
C671        C882   1.483       .  S
C672       C2173   1.486       .  S
C673        C674   1.407       .  A
C673        C678   1.405       .  A
C673        C868   1.484       .  S
C674        C675   1.406       .  A
C674        H679   1.083       .  S
C675        C676   1.403       .  A
C675        C854   1.492       .  S
C676        C677   1.403       .  A
C676        H680   1.083       .  S
C677        C678   1.403       .  A
C677       C1053   1.487       .  S
C678        H681   1.083       .  S
C682        C683   1.409       .  A
C682        C687   1.409       .  A
C682        C871   1.484       .  S
C683        C684   1.404       .  A
C683        H688   1.084       .  S
C684        C685   1.405       .  A
C684       C1344   1.493       .  S
C685        C686   1.404       .  A
C685        H689   1.084       .  S
C686        C687   1.403       .  A
C686        C885   1.490       .  S
C687        H690   1.084       .  S
C691        C692   1.409       .  A
C691        C696   1.406       .  A
C691        C840   1.482       .  S
C692        C693   1.408       .  A
C692        H697   1.083       .  S
C693        C694   1.404       .  A
C693       C1064   1.494       .  S
C694        C695   1.402       .  A
C694        H698   1.084       .  S
C695        C696   1.401       .  A
C695        C826   1.484       .  S
C696        H699   1.084       .  S
C700        C701   1.407       .  A
C700        C705   1.407       .  A
C700        C843   1.482       .  S
C701        C702   1.407       .  A
C701        H706   1.083       .  S
C702        C703   1.405       .  A
C702       C1372   1.495       .  S
C703        C704   1.405       .  A
C703        H707   1.084       .  S
C704        C705   1.405       .  A
C704        C812   1.490       .  S
C705        H708   1.083       .  S
O709       Cu717   2.002   1_544  S
O709        C719   1.278   1_554  A
O710       Cu717   1.989       .  S
O710        C720   1.275       .  A
O711       Cu717   1.994       .  S
O711        C721   1.276   1_565  A
O712       Cu717   1.989   1_554  S
O712        C722   1.276       .  A
O713       Cu718   2.029   1_554  S
O713        C722   1.279   1_545  A
O714       Cu718   2.018       .  S
O714        C721   1.278       .  A
O715       Cu718   2.022   1_565  S
O715        C720   1.279       .  A
O716       Cu718   2.015       .  S
O716        C719   1.278       .  A
Cu717      Cu718   2.376   1_565  S
C719        C857   1.479       .  S
C720       C2215   1.468       .  S
C721       C2128   1.473       .  S
C722        C829   1.475       .  S
C723        C724   1.405       .  A
C723        C728   1.407       .  A
C723        C798   1.477       .  S
C724        C725   1.403       .  A
C724        H729   1.084       .  S
C725        C726   1.401       .  A
C725        C955   1.482       .  S
C726        C727   1.400       .  A
C726        H730   1.084       .  S
C727        C728   1.403       .  A
C727        C784   1.484       .  S
C728        H731   1.083       .  S
C732        C733   1.406       .  A
C732        C737   1.406       .  A
C732        C801   1.478       .  S
C733        C734   1.403       .  A
C733        H738   1.084       .  S
C734        C735   1.403       .  A
C734       C1249   1.486       .  S
C735        C736   1.403       .  A
C735        H739   1.084       .  S
C736        C737   1.404       .  A
C736        C770   1.486       .  S
C737        H740   1.084       .  S
O741       Cu749   2.000       .  S
O741        C751   1.277       .  A
O742       Cu749   2.005       .  S
O742        C752   1.277       .  A
O743       Cu749   1.996   1_565  S
O743        C753   1.276       .  A
O744       Cu749   1.989       .  S
O744        C754   1.275       .  A
O745       Cu750   2.022       .  S
O745        C754   1.279       .  A
O746       Cu750   2.025   1_565  S
O746        C753   1.279       .  A
O747       Cu750   2.026       .  S
O747        C752   1.279       .  A
O748       Cu750   2.018       .  S
O748        C751   1.278       .  A
Cu749      Cu750   2.371       .  S
C751       C2100   1.474       .  S
C752        C815   1.482       .  S
C753       C2313   1.479       .  S
C754        C787   1.474       .  S
O755       Cu763   1.997       .  S
O755        C765   1.276       .  A
O756       Cu763   1.987       .  S
O756        C766   1.275       .  A
O757       Cu763   2.004       .  S
O757        C767   1.278       .  A
O758       Cu763   1.997       .  S
O758        C768   1.277       .  A
O759       Cu764   2.023       .  S
O759        C768   1.279       .  A
O760       Cu764   2.010       .  S
O760        C767   1.277       .  A
O761       Cu764   2.028       .  S
O761        C766   1.279       .  A
O762       Cu764   2.015       .  S
O762        C765   1.278       .  A
Cu763      Cu764   2.376       .  S
C765       C2271   1.470       .  S
C766        C899   1.473       .  S
C767       C2338   1.472       .  S
C768        C773   1.477       .  S
C769        C770   1.405       .  A
C769        C774   1.410       .  A
C769        H776   1.084       .  S
C770        C771   1.413       .  A
C771        C772   1.403       .  A
C771        N778   1.438       .  S
C772        C773   1.401       .  A
C772        H777   1.084       .  S
C773        C774   1.411       .  A
C774        N775   1.437       .  S
N775        H779   1.045       .  S
N775        H780   1.045       .  S
N778        H781   1.046       .  S
N778        H782   1.046       .  S
C783        C784   1.405       .  A
C783        C788   1.402       .  A
C783        H790   1.084       .  S
C784        C785   1.409       .  A
C785        C786   1.405       .  A
C785        N792   1.432       .  S
C786        C787   1.404       .  A
C786        H791   1.084       .  S
C787        C788   1.411       .  A
C788        N789   1.439       .  S
N789        H793   1.046       .  S
N789        H794   1.045       .  S
N792        H795   1.046       .  S
N792        H796   1.046       .  S
C797        C798   1.402       .  A
C797        C802   1.403       .  A
C797        H804   1.084       .  S
C798        C799   1.412       .  A
C799        C800   1.398       .  A
C799        N806   1.433       .  S
C800        C801   1.403       .  A
C800        H805   1.084       .  S
C801        C802   1.418       .  A
C802        N803   1.438       .  S
N803        H807   1.045       .  S
N803        H808   1.043       .  S
N806        H809   1.046       .  S
N806        H810   1.044       .  S
C811        C812   1.404   1_565  A
C811        C816   1.404       .  A
C811        H818   1.084       .  S
C812        C813   1.411       .  A
C813        C814   1.409       .  A
C813        N820   1.432       .  S
C814        C815   1.406       .  A
C814        H819   1.084       .  S
C815        C816   1.412   1_545  A
C816        N817   1.438       .  S
N817        H821   1.046       .  S
N817        H822   1.045       .  S
N820        H823   1.045       .  S
N820        H824   1.046       .  S
C825        C826   1.405   1_545  A
C825        C830   1.410       .  A
C825        H832   1.083       .  S
C826        C827   1.411       .  A
C827        C828   1.401       .  A
C827        N834   1.438       .  S
C828        C829   1.402       .  A
C828        H833   1.084       .  S
C829        C830   1.411   1_565  A
C830        N831   1.437       .  S
N831        H835   1.046       .  S
N831        H836   1.045       .  S
N834        H837   1.045       .  S
N834        H838   1.046       .  S
C839        C840   1.403   1_545  A
C839        C844   1.402       .  A
C839        H846   1.084       .  S
C840        C841   1.414       .  A
C841        C842   1.401       .  A
C841        N848   1.433       .  S
C842        C843   1.403   1_565  A
C842        H847   1.084       .  S
C843        C844   1.414       .  A
C844        N845   1.432       .  S
N845        H849   1.044       .  S
N845        H850   1.046       .  S
N848        H851   1.046       .  S
N848        H852   1.044       .  S
C853        C854   1.406       .  A
C853        C858   1.408       .  A
C853        H860   1.083       .  S
C854        C855   1.416   1_556  A
C855        C856   1.403       .  A
C855        N862   1.438       .  S
C856        C857   1.402   1_554  A
C856        H861   1.084       .  S
C857        C858   1.412       .  A
C858        N859   1.438       .  S
N859        H863   1.046       .  S
N859        H864   1.045       .  S
N862        H865   1.046       .  S
N862        H866   1.045       .  S
C867        C868   1.403   1_554  A
C867        C872   1.404       .  A
C867        H874   1.084       .  S
C868        C869   1.410       .  A
C869        C870   1.404       .  A
C869        N876   1.433       .  S
C870        C871   1.404       .  A
C870        H875   1.084       .  S
C871        C872   1.410   1_556  A
C872        N873   1.432       .  S
N873        H877   1.045       .  S
N873        H878   1.046       .  S
N876        H879   1.046       .  S
N876        H880   1.045       .  S
C881        C882   1.402       .  A
C881        C886   1.400       .  A
C881        H888   1.080       .  S
C882        C883   1.412   1_556  A
C883        C884   1.416       .  A
C883        N890   1.437       .  S
C884        C885   1.408   1_554  A
C884        H889   1.083       .  S
C885        C886   1.411       .  A
C886        N887   1.439       .  S
N887        H891   1.045       .  S
N887        H892   1.046       .  S
N890        H893   1.045       .  S
N890        H894   1.046       .  S
C895        C896   1.406       .  A
C895        C900   1.410       .  A
C895        H902   1.084       .  S
C896        C897   1.411       .  A
C897        C898   1.400       .  A
C897        N904   1.438       .  S
C898        C899   1.401       .  A
C898        H903   1.084       .  S
C899        C900   1.410       .  A
C900        N901   1.437       .  S
N901        H905   1.046       .  S
N901        H906   1.046       .  S
N904        H907   1.046       .  S
N904        H908   1.046       .  S
C909        C910   1.403       .  A
C909        C914   1.402       .  A
C909        H916   1.084       .  S
C910        C911   1.413       .  A
C911        C912   1.412       .  A
C911        N918   1.437       .  S
C912        C913   1.405       .  A
C912        H917   1.084       .  S
C913        C914   1.409       .  A
C914        N915   1.438       .  S
N915        H919   1.046       .  S
N915        H920   1.046       .  S
N918        H921   1.046       .  S
N918        H922   1.046       .  S
C923        C924   1.404       .  A
C923        C928   1.406       .  A
C923        H930   1.084       .  S
C924        C925   1.411       .  A
C925        C926   1.406       .  A
C925        N932   1.438       .  S
C926        C927   1.405       .  A
C926        H931   1.084       .  S
C927        C928   1.413       .  A
C928        N929   1.438       .  S
N929        H933   1.046       .  S
N929        H934   1.045       .  S
N932        H935   1.046       .  S
N932        H936   1.046       .  S
C937        C938   1.402       .  A
C937        C942   1.402       .  A
C937        H944   1.084       .  S
C938        C939   1.411       .  A
C939        C940   1.413       .  A
C939        N946   1.437       .  S
C940        C941   1.411       .  A
C940        H945   1.083       .  S
C941        C942   1.416       .  A
C942        N943   1.439       .  S
N943        H947   1.046       .  S
N943        H948   1.045       .  S
N946        H949   1.045       .  S
N946        H950   1.045       .  S
C951        C952   1.400       .  A
C951        C956   1.395       .  A
C951        H958   1.085       .  S
C952        C953   1.412       .  A
C953        C954   1.410       .  A
C953        N960   1.437       .  S
C954        C955   1.405       .  A
C954        H959   1.083       .  S
C955        C956   1.410       .  A
C956        N957   1.433       .  S
N957        H961   1.045       .  S
N957        H962   1.046       .  S
N960        H963   1.045       .  S
N960        H964   1.046       .  S
C965        C966   1.403       .  A
C965        C970   1.407       .  A
C965        H972   1.084       .  S
C966        C967   1.407       .  A
C967        C968   1.401       .  A
C967        N974   1.433       .  S
C968        C969   1.405       .  A
C968        H973   1.084       .  S
C969        C970   1.412       .  A
C970        N971   1.432       .  S
N971        H975   1.046       .  S
N971        H976   1.046       .  S
N974        H977   1.046       .  S
N974        H978   1.046       .  S
C979        C980   1.407       .  A
C979        C984   1.411       .  A
C979        H986   1.084       .  S
C980        C981   1.411       .  A
C981        C982   1.405       .  A
C981        N988   1.438       .  S
C982        C983   1.404       .  A
C982        H987   1.084       .  S
C983        C984   1.412       .  A
C984        N985   1.438       .  S
N985        H989   1.046       .  S
N985        H990   1.046       .  S
N988        H991   1.045       .  S
N988        H992   1.046       .  S
C993        C994   1.403       .  A
C993        C998   1.404       .  A
C993       H1000   1.084       .  S
C994        C995   1.416       .  A
C995        C996   1.410       .  A
C995       N1002   1.438       .  S
C996        C997   1.403       .  A
C996       H1001   1.084       .  S
C997        C998   1.413       .  A
C998        N999   1.438       .  S
N999       H1003   1.048       .  S
N999       H1004   1.043       .  S
N1002      H1005   1.046       .  S
N1002      H1006   1.045       .  S
C1007      C1008   1.404       .  A
C1007      C1012   1.401       .  A
C1007      H1014   1.084       .  S
C1008      C1009   1.413       .  A
C1009      C1010   1.408       .  A
C1009      N1016   1.438       .  S
C1010      C1011   1.405       .  A
C1010      H1015   1.084       .  S
C1011      C1012   1.408       .  A
C1012      N1013   1.433       .  S
N1013      H1017   1.045       .  S
N1013      H1018   1.046       .  S
N1016      H1019   1.045       .  S
N1016      H1020   1.046       .  S
C1021      C1022   1.400       .  A
C1021      C1026   1.401       .  A
C1021      H1028   1.084       .  S
C1022      C1023   1.414       .  A
C1023      C1024   1.410       .  A
C1023      N1030   1.438       .  S
C1024      C1025   1.403       .  A
C1024      H1029   1.084       .  S
C1025      C1026   1.411       .  A
C1026      N1027   1.434       .  S
N1027      H1031   1.046       .  S
N1027      H1032   1.044       .  S
N1030      H1033   1.046       .  S
N1030      H1034   1.046       .  S
C1035      C1036   1.410       .  A
C1035      C1040   1.408       .  A
C1035      H1042   1.079       .  S
C1036      C1037   1.418       .  A
C1037      C1038   1.404       .  A
C1037      N1044   1.432       .  S
C1038      C1039   1.413       .  A
C1038      H1043   1.077       .  S
C1039      C1040   1.425       .  A
C1040      N1041   1.437       .  S
N1041      H1045   1.046       .  S
N1041      H1046   1.045       .  S
N1044      H1047   1.046       .  S
N1044      H1048   1.046       .  S
C1049      C1050   1.402       .  A
C1049      C1054   1.405       .  A
C1049      H1056   1.084       .  S
C1050      C1051   1.412   1_556  A
C1051      C1052   1.403       .  A
C1051      N1058   1.439       .  S
C1052      C1053   1.405   1_554  A
C1052      H1057   1.084       .  S
C1053      C1054   1.411       .  A
C1054      N1055   1.432       .  S
N1055      H1059   1.046       .  S
N1055      H1060   1.046       .  S
N1058      H1061   1.044       .  S
N1058      H1062   1.046       .  S
C1063      C1064   1.407       .  A
C1063      C1068   1.403       .  A
C1063      H1070   1.084       .  S
C1064      C1065   1.416   1_565  A
C1065      C1066   1.412       .  A
C1065      N1072   1.437       .  S
C1066      C1067   1.404       .  A
C1066      H1071   1.084       .  S
C1067      C1068   1.410   1_545  A
C1068      N1069   1.439       .  S
N1069      H1073   1.046       .  S
N1069      H1074   1.046       .  S
N1072      H1075   1.046       .  S
N1072      H1076   1.045       .  S
C1077      C1078   1.403       .  A
C1077      C1082   1.400       .  A
C1077      H1084   1.084       .  S
C1078      C1079   1.417   1_655  A
C1079      C1080   1.401       .  A
C1079      N1086   1.439       .  S
C1080      C1081   1.402   1_455  A
C1080      H1085   1.085       .  S
C1081      C1082   1.413       .  A
C1082      N1083   1.440       .  S
N1083      H1087   1.046       .  S
N1083      H1088   1.043       .  S
N1086      H1089   1.042       .  S
N1086      H1090   1.046       .  S
C1091      C1092   1.404   1_455  A
C1091      C1096   1.399       .  A
C1091      H1098   1.084       .  S
C1092      C1093   1.414       .  A
C1093      C1094   1.410       .  A
C1093      N1100   1.437       .  S
C1094      C1095   1.404   1_655  A
C1094      H1099   1.084       .  S
C1095      C1096   1.409       .  A
C1096      N1097   1.438       .  S
N1097      H1101   1.046       .  S
N1097      H1102   1.046       .  S
N1100      H1103   1.046       .  S
N1100      H1104   1.045       .  S
C1105      C1106   1.403       .  A
C1105      C1110   1.406       .  A
C1105      H1112   1.084       .  S
C1106      C1107   1.418   1_655  A
C1107      C1108   1.399       .  A
C1107      N1114   1.439       .  S
C1108      C1109   1.401   1_455  A
C1108      H1113   1.085       .  S
C1109      C1110   1.418       .  A
C1110      N1111   1.438       .  S
N1111      H1115   1.045       .  S
N1111      H1116   1.043       .  S
N1114      H1117   1.044       .  S
N1114      H1118   1.045       .  S
C1119      C1120   1.404   1_455  A
C1119      C1124   1.405       .  A
C1119      H1126   1.084       .  S
C1120      C1121   1.411       .  A
C1121      C1122   1.407       .  A
C1121      N1128   1.438       .  S
C1122      C1123   1.403       .  A
C1122      H1127   1.084       .  S
C1123      C1124   1.411   1_655  A
C1124      N1125   1.438       .  S
N1125      H1129   1.045       .  S
N1125      H1130   1.046       .  S
N1128      H1131   1.046       .  S
N1128      H1132   1.046       .  S
C1133      C1134   1.405   1_565  A
C1133      C1138   1.411       .  A
C1133      H1140   1.084       .  S
C1134      C1135   1.409       .  A
C1135      C1136   1.399       .  A
C1135      N1142   1.433       .  S
C1136      C1137   1.401       .  A
C1136      H1141   1.084       .  S
C1137      C1138   1.413   1_545  A
C1138      N1139   1.437       .  S
N1139      H1143   1.046       .  S
N1139      H1144   1.045       .  S
N1142      H1145   1.046       .  S
N1142      H1146   1.045       .  S
C1147      C1148   1.405   1_565  A
C1147      C1152   1.409       .  A
C1147      H1154   1.084       .  S
C1148      C1149   1.413       .  A
C1149      C1150   1.403       .  A
C1149      N1156   1.439       .  S
C1150      C1151   1.405       .  A
C1150      H1155   1.084       .  S
C1151      C1152   1.411   1_545  A
C1152      N1153   1.432       .  S
N1153      H1157   1.045       .  S
N1153      H1158   1.046       .  S
N1156      H1159   1.045       .  S
N1156      H1160   1.046       .  S
C1161      C1162   1.404       .  A
C1161      C1166   1.404       .  A
C1161      H1168   1.084       .  S
C1162      C1163   1.412   1_545  A
C1163      C1164   1.409       .  A
C1163      N1170   1.438       .  S
C1164      C1165   1.406   1_565  A
C1164      H1169   1.084       .  S
C1165      C1166   1.411       .  A
C1166      N1167   1.438       .  S
N1167      H1171   1.045       .  S
N1167      H1172   1.046       .  S
N1170      H1173   1.046       .  S
N1170      H1174   1.046       .  S
C1175      C1176   1.406   1_554  A
C1175      C1180   1.409       .  A
C1175      H1182   1.084       .  S
C1176      C1177   1.416       .  A
C1177      C1178   1.396       .  A
C1177      N1184   1.434       .  S
C1178      C1179   1.402       .  A
C1178      H1183   1.085       .  S
C1179      C1180   1.411   1_556  A
C1180      N1181   1.437       .  S
N1181      H1185   1.046       .  S
N1181      H1186   1.045       .  S
N1184      H1187   1.045       .  S
N1184      H1188   1.042       .  S
C1189      C1190   1.407       .  A
C1189      C1194   1.414       .  A
C1189      H1196   1.083       .  S
C1190      C1191   1.413   1_556  A
C1191      C1192   1.403       .  A
C1191      N1198   1.438       .  S
C1192      C1193   1.401   1_554  A
C1192      H1197   1.084       .  S
C1193      C1194   1.411       .  A
C1194      N1195   1.437       .  S
N1195      H1199   1.046       .  S
N1195      H1200   1.045       .  S
N1198      H1201   1.045       .  S
N1198      H1202   1.046       .  S
C1203      C1204   1.406       .  A
C1203      C1208   1.412       .  A
C1203      H1210   1.083       .  S
C1204      C1205   1.410   1_556  A
C1205      C1206   1.399       .  A
C1205      N1212   1.433       .  S
C1206      C1207   1.401   1_554  A
C1206      H1211   1.084       .  S
C1207      C1208   1.411       .  A
C1208      N1209   1.437       .  S
N1209      H1213   1.046       .  S
N1209      H1214   1.045       .  S
N1212      H1215   1.046       .  S
N1212      H1216   1.045       .  S
C1217      C1218   1.405       .  A
C1217      C1222   1.409       .  A
C1217      H1224   1.084       .  S
C1218      C1219   1.414   1_556  A
C1219      C1220   1.406       .  A
C1219      N1226   1.438       .  S
C1220      C1221   1.402   1_554  A
C1220      H1225   1.084       .  S
C1221      C1222   1.411       .  A
C1222      N1223   1.437       .  S
N1223      H1227   1.046       .  S
N1223      H1228   1.046       .  S
N1226      H1229   1.046       .  S
N1226      H1230   1.046       .  S
C1231      C1232   1.402       .  A
C1231      C1236   1.405       .  A
C1231      H1238   1.084       .  S
C1232      C1233   1.411   1_545  A
C1233      C1234   1.410       .  A
C1233      N1240   1.437       .  S
C1234      C1235   1.406   1_565  A
C1234      H1239   1.084       .  S
C1235      C1236   1.414       .  A
C1236      N1237   1.438       .  S
N1237      H1241   1.046       .  S
N1237      H1242   1.045       .  S
N1240      H1243   1.044       .  S
N1240      H1244   1.046       .  S
C1245      C1246   1.404       .  A
C1245      C1250   1.411       .  A
C1245      H1252   1.084       .  S
C1246      C1247   1.412       .  A
C1247      C1248   1.401       .  A
C1247      N1254   1.438       .  S
C1248      C1249   1.402       .  A
C1248      H1253   1.084       .  S
C1249      C1250   1.414       .  A
C1250      N1251   1.437       .  S
N1251      H1255   1.046       .  S
N1251      H1256   1.046       .  S
N1254      H1257   1.046       .  S
N1254      H1258   1.045       .  S
C1259      C1260   1.402       .  A
C1259      C1264   1.404       .  A
C1259      H1266   1.084       .  S
C1260      C1261   1.411   1_655  A
C1261      C1262   1.410       .  A
C1261      N1268   1.438       .  S
C1262      C1263   1.406   1_455  A
C1262      H1267   1.084       .  S
C1263      C1264   1.413       .  A
C1264      N1265   1.438       .  S
N1265      H1269   1.046       .  S
N1265      H1270   1.045       .  S
N1268      H1271   1.046       .  S
N1268      H1272   1.046       .  S
C1273      C1274   1.406       .  A
C1273      C1278   1.407       .  A
C1273      H1280   1.084       .  S
C1274      C1275   1.408       .  A
C1275      C1276   1.405       .  A
C1275      N1282   1.432       .  S
C1276      C1277   1.404       .  A
C1276      H1281   1.084       .  S
C1277      C1278   1.412       .  A
C1278      N1279   1.438       .  S
N1279      H1283   1.046       .  S
N1279      H1284   1.045       .  S
N1282      H1285   1.045       .  S
N1282      H1286   1.046       .  S
C1287      C1288   1.403       .  A
C1287      C1292   1.402       .  A
C1287      H1294   1.084       .  S
C1288      C1289   1.414       .  A
C1289      C1290   1.400       .  A
C1289      N1296   1.433       .  S
C1290      C1291   1.403       .  A
C1290      H1295   1.084       .  S
C1291      C1292   1.410       .  A
C1292      N1293   1.438       .  S
N1293      H1297   1.046       .  S
N1293      H1298   1.045       .  S
N1296      H1299   1.045       .  S
N1296      H1300   1.044       .  S
C1301      C1302   1.404       .  A
C1301      C1306   1.408       .  A
C1301      H1308   1.084       .  S
C1302      C1303   1.413       .  A
C1303      C1304   1.403       .  A
C1303      N1310   1.439       .  S
C1304      C1305   1.405       .  A
C1304      H1309   1.084       .  S
C1305      C1306   1.412       .  A
C1306      N1307   1.432       .  S
N1307      H1311   1.046       .  S
N1307      H1312   1.045       .  S
N1310      H1313   1.045       .  S
N1310      H1314   1.046       .  S
C1315      C1316   1.406       .  A
C1315      C1320   1.410       .  A
C1315      H1322   1.083       .  S
C1316      C1317   1.413       .  A
C1317      C1318   1.401       .  A
C1317      N1324   1.439       .  S
C1318      C1319   1.402       .  A
C1318      H1323   1.084       .  S
C1319      C1320   1.412       .  A
C1320      N1321   1.436       .  S
N1321      H1325   1.045       .  S
N1321      H1326   1.044       .  S
N1324      H1327   1.046       .  S
N1324      H1328   1.045       .  S
C1329      C1330   1.403       .  A
C1329      C1334   1.402       .  A
C1329      H1336   1.084       .  S
C1330      C1331   1.413       .  A
C1331      C1332   1.409       .  A
C1331      N1338   1.438       .  S
C1332      C1333   1.405       .  A
C1332      H1337   1.084       .  S
C1333      C1334   1.410       .  A
C1334      N1335   1.433       .  S
N1335      H1339   1.045       .  S
N1335      H1340   1.046       .  S
N1338      H1341   1.045       .  S
N1338      H1342   1.046       .  S
C1343      C1344   1.408   1_554  A
C1343      C1348   1.414       .  A
C1343      H1350   1.083       .  S
C1344      C1345   1.411       .  A
C1345      C1346   1.399       .  A
C1345      N1352   1.433       .  S
C1346      C1347   1.401       .  A
C1346      H1351   1.083       .  S
C1347      C1348   1.413   1_556  A
C1348      N1349   1.437       .  S
N1349      H1353   1.046       .  S
N1349      H1354   1.045       .  S
N1352      H1355   1.046       .  S
N1352      H1356   1.046       .  S
C1357      C1358   1.406   1_554  A
C1357      C1362   1.406       .  A
C1357      H1364   1.084       .  S
C1358      C1359   1.411       .  A
C1359      C1360   1.406       .  A
C1359      N1366   1.432       .  S
C1360      C1361   1.404       .  A
C1360      H1365   1.084       .  S
C1361      C1362   1.414   1_556  A
C1362      N1363   1.438       .  S
N1363      H1367   1.046       .  S
N1363      H1368   1.045       .  S
N1366      H1369   1.045       .  S
N1366      H1370   1.046       .  S
C1371      C1372   1.407   1_565  A
C1371      C1376   1.405       .  A
C1371      H1378   1.084       .  S
C1372      C1373   1.415       .  A
C1373      C1374   1.411       .  A
C1373      N1380   1.437       .  S
C1374      C1375   1.404       .  A
C1374      H1379   1.084       .  S
C1375      C1376   1.411   1_545  A
C1376      N1377   1.438       .  S
N1377      H1381   1.046       .  S
N1377      H1382   1.046       .  S
N1380      H1383   1.046       .  S
N1380      H1384   1.046       .  S
C1385      C1386   1.401       .  A
C1385      C1390   1.401       .  A
C1385      H1392   1.084       .  S
C1386      C1387   1.410   1_545  A
C1387      C1388   1.410       .  A
C1387      N1394   1.437       .  S
C1388      C1389   1.405   1_565  A
C1388      H1393   1.084       .  S
C1389      C1390   1.418       .  A
C1390      N1391   1.438       .  S
N1391      H1395   1.046       .  S
N1391      H1396   1.043       .  S
N1394      H1397   1.045       .  S
N1394      H1398   1.046       .  S
C1399      C1400   1.405       .  A
C1399      C1404   1.403       .  A
C1399      H1406   1.084       .  S
C1400      C1401   1.417       .  A
C1401      C1402   1.398       .  A
C1401      N1408   1.438       .  S
C1402      C1403   1.401       .  A
C1402      H1407   1.084       .  S
C1403      C1404   1.413       .  A
C1404      N1405   1.432       .  S
N1405      H1409   1.045       .  S
N1405      H1410   1.046       .  S
N1408      H1411   1.043       .  S
N1408      H1412   1.046       .  S
C1413      C1414   1.404       .  A
C1413      C1418   1.405       .  A
C1413      H1420   1.084       .  S
C1414      C1415   1.413       .  A
C1415      C1416   1.406       .  A
C1415      N1422   1.438       .  S
C1416      C1417   1.404       .  A
C1416      H1421   1.084       .  S
C1417      C1418   1.418       .  A
C1418      N1419   1.439       .  S
N1419      H1423   1.047       .  S
N1419      H1424   1.041       .  S
N1422      H1425   1.046       .  S
N1422      H1426   1.045       .  S
C1427      C1428   1.403       .  A
C1427      C1432   1.405       .  A
C1427      H1434   1.084       .  S
C1428      C1429   1.412       .  A
C1429      C1430   1.404       .  A
C1429      N1436   1.438       .  S
C1430      C1431   1.402       .  A
C1430      H1435   1.084       .  S
C1431      C1432   1.419       .  A
C1432      N1433   1.440       .  S
N1433      H1437   1.046       .  S
N1433      H1438   1.042       .  S
N1436      H1439   1.046       .  S
N1436      H1440   1.045       .  S
C1441      C1442   1.404       .  A
C1441      C1446   1.403       .  A
C1441      H1448   1.084       .  S
C1442      C1443   1.416       .  A
C1443      C1444   1.398       .  A
C1443      N1450   1.439       .  S
C1444      C1445   1.402       .  A
C1444      H1449   1.085       .  S
C1445      C1446   1.415       .  A
C1446      N1447   1.438       .  S
N1447      H1451   1.045       .  S
N1447      H1452   1.043       .  S
N1450      H1453   1.043       .  S
N1450      H1454   1.046       .  S
C1455      C1456   1.404       .  A
C1455      C1460   1.398       .  A
C1455      H1462   1.084       .  S
C1456      C1457   1.418       .  A
C1457      C1458   1.404       .  A
C1457      N1464   1.438       .  S
C1458      C1459   1.403       .  A
C1458      H1463   1.084       .  S
C1459      C1460   1.411       .  A
C1460      N1461   1.433       .  S
N1461      H1465   1.044       .  S
N1461      H1466   1.046       .  S
N1464      H1467   1.043       .  S
N1464      H1468   1.045       .  S
C1469      C1470   1.406       .  A
C1469      C1474   1.410       .  A
C1469      H1476   1.084       .  S
C1470      C1471   1.411       .  A
C1471      C1472   1.402       .  A
C1471      N1478   1.438       .  S
C1472      C1473   1.403       .  A
C1472      H1477   1.083       .  S
C1473      C1474   1.412       .  A
C1474      N1475   1.437       .  S
N1475      H1479   1.045       .  S
N1475      H1480   1.045       .  S
N1478      H1481   1.046       .  S
N1478      H1482   1.046       .  S
C1483      C1484   1.403       .  A
C1483      C1488   1.408       .  A
C1483      H1490   1.084       .  S
C1484      C1485   1.413       .  A
C1485      C1486   1.401       .  A
C1485      N1492   1.433       .  S
C1486      C1487   1.402       .  A
C1486      H1491   1.084       .  S
C1487      C1488   1.411       .  A
C1488      N1489   1.437       .  S
N1489      H1493   1.046       .  S
N1489      H1494   1.045       .  S
N1492      H1495   1.046       .  S
N1492      H1496   1.045       .  S
C1497      C1498   1.404       .  A
C1497      C1502   1.406       .  A
C1497      H1504   1.084       .  S
C1498      C1499   1.411       .  A
C1499      C1500   1.403       .  A
C1499      N1506   1.439       .  S
C1500      C1501   1.405       .  A
C1500      H1505   1.084       .  S
C1501      C1502   1.409       .  A
C1502      N1503   1.432       .  S
N1503      H1507   1.045       .  S
N1503      H1508   1.046       .  S
N1506      H1509   1.045       .  S
N1506      H1510   1.045       .  S
C1511      C1512   1.403       .  A
C1511      C1516   1.398       .  A
C1511      H1518   1.084       .  S
C1512      C1513   1.411       .  A
C1513      C1514   1.408       .  A
C1513      N1520   1.431       .  S
C1514      C1515   1.404       .  A
C1514      H1519   1.084       .  S
C1515      C1516   1.412       .  A
C1516      N1517   1.436       .  S
N1517      H1521   1.046       .  S
N1517      H1522   1.045       .  S
N1520      H1523   1.046       .  S
N1520      H1524   1.045       .  S
C1525      C1526   1.406       .  A
C1525      C1530   1.403       .  A
C1525      H1532   1.083       .  S
C1526      C1527   1.412       .  A
C1527      C1528   1.404       .  A
C1527      N1534   1.433       .  S
C1528      C1529   1.405       .  A
C1528      H1533   1.084       .  S
C1529      C1530   1.412       .  A
C1530      N1531   1.432       .  S
N1531      H1535   1.046       .  S
N1531      H1536   1.046       .  S
N1534      H1537   1.046       .  S
N1534      H1538   1.046       .  S
C1539      C1540   1.402       .  A
C1539      C1544   1.399       .  A
C1539      H1546   1.084       .  S
C1540      C1541   1.412   1_655  A
C1541      C1542   1.401       .  A
C1541      N1548   1.432       .  S
C1542      C1543   1.403       .  A
C1542      H1547   1.084       .  S
C1543      C1544   1.416   1_455  A
C1544      N1545   1.433       .  S
N1545      H1549   1.043       .  S
N1545      H1550   1.046       .  S
N1548      H1551   1.047       .  S
N1548      H1552   1.044       .  S
C1553      C1554   1.402       .  A
C1553      C1558   1.400       .  A
C1553      H1560   1.084       .  S
C1554      C1555   1.412   1_455  A
C1555      C1556   1.399       .  A
C1555      N1562   1.433       .  S
C1556      C1557   1.405   1_655  A
C1556      H1561   1.084       .  S
C1557      C1558   1.418       .  A
C1558      N1559   1.438       .  S
N1559      H1563   1.047       .  S
N1559      H1564   1.042       .  S
N1562      H1565   1.046       .  S
N1562      H1566   1.045       .  S
C1567      C1568   1.404   1_455  A
C1567      C1572   1.405       .  A
C1567      H1574   1.084       .  S
C1568      C1569   1.417       .  A
C1569      C1570   1.401       .  A
C1569      N1576   1.439       .  S
C1570      C1571   1.401       .  A
C1570      H1575   1.085       .  S
C1571      C1572   1.419   1_655  A
C1572      N1573   1.439       .  S
N1573      H1577   1.046       .  S
N1573      H1578   1.042       .  S
N1576      H1579   1.043       .  S
N1576      H1580   1.046       .  S
C1581      C1582   1.403   1_455  A
C1581      C1586   1.398       .  A
C1581      H1588   1.084       .  S
C1582      C1583   1.415       .  A
C1583      C1584   1.404       .  A
C1583      N1590   1.432       .  S
C1584      C1585   1.404       .  A
C1584      H1589   1.084       .  S
C1585      C1586   1.413   1_655  A
C1586      N1587   1.433       .  S
N1587      H1591   1.046       .  S
N1587      H1592   1.045       .  S
N1590      H1593   1.045       .  S
N1590      H1594   1.045       .  S
C1595      C1596   1.404       .  A
C1595      C1600   1.402       .  A
C1595      H1602   1.084       .  S
C1596      C1597   1.415   1_455  A
C1597      C1598   1.400       .  A
C1597      N1604   1.433       .  S
C1598      C1599   1.401   1_655  A
C1598      H1603   1.084       .  S
C1599      C1600   1.412       .  A
C1600      N1601   1.432       .  S
N1601      H1605   1.046       .  S
N1601      H1606   1.045       .  S
N1604      H1607   1.044       .  S
N1604      H1608   1.045       .  S
C1609      C1610   1.406       .  A
C1609      C1614   1.410       .  A
C1609      H1616   1.084       .  S
C1610      C1611   1.414   1_556  A
C1611      C1612   1.395       .  A
C1611      N1618   1.434       .  S
C1612      C1613   1.401   1_554  A
C1612      H1617   1.085       .  S
C1613      C1614   1.410       .  A
C1614      N1615   1.437       .  S
N1615      H1619   1.046       .  S
N1615      H1620   1.045       .  S
N1618      H1621   1.046       .  S
N1618      H1622   1.043       .  S
C1623      C1624   1.405       .  A
C1623      C1628   1.408       .  A
C1623      H1630   1.084       .  S
C1624      C1625   1.414   1_556  A
C1625      C1626   1.404       .  A
C1625      N1632   1.439       .  S
C1626      C1627   1.403       .  A
C1626      H1631   1.084       .  S
C1627      C1628   1.410   1_554  A
C1628      N1629   1.432       .  S
N1629      H1633   1.046       .  S
N1629      H1634   1.045       .  S
N1632      H1635   1.045       .  S
N1632      H1636   1.045       .  S
C1637      C1638   1.403   1_554  A
C1637      C1642   1.402       .  A
C1637      H1644   1.084       .  S
C1638      C1639   1.413       .  A
C1639      C1640   1.408       .  A
C1639      N1646   1.432       .  S
C1640      C1641   1.404       .  A
C1640      H1645   1.084       .  S
C1641      C1642   1.413   1_556  A
C1642      N1643   1.439       .  S
N1643      H1647   1.046       .  S
N1643      H1648   1.045       .  S
N1646      H1649   1.046       .  S
N1646      H1650   1.046       .  S
C1651      C1652   1.404   1_556  A
C1651      C1656   1.405       .  A
C1651      H1658   1.084       .  S
C1652      C1653   1.411       .  A
C1653      C1654   1.403       .  A
C1653      N1660   1.433       .  S
C1654      C1655   1.403   1_554  A
C1654      H1659   1.084       .  S
C1655      C1656   1.412       .  A
C1656      N1657   1.438       .  S
N1657      H1661   1.046       .  S
N1657      H1662   1.046       .  S
N1660      H1663   1.046       .  S
N1660      H1664   1.046       .  S
C1665      C1666   1.405       .  A
C1665      C1670   1.399       .  A
C1665      H1672   1.084       .  S
C1666      C1667   1.415   1_556  A
C1667      C1668   1.410       .  A
C1667      N1674   1.432       .  S
C1668      C1669   1.403   1_554  A
C1668      H1673   1.084       .  S
C1669      C1670   1.408       .  A
C1670      N1671   1.433       .  S
N1671      H1675   1.046       .  S
N1671      H1676   1.046       .  S
N1674      H1677   1.045       .  S
N1674      H1678   1.046       .  S
C1679      C1680   1.405       .  A
C1679      C1684   1.408       .  A
C1679      H1686   1.084       .  S
C1680      C1681   1.414       .  A
C1681      C1682   1.403       .  A
C1681      N1688   1.438       .  S
C1682      C1683   1.400       .  A
C1682      H1687   1.084       .  S
C1683      C1684   1.410       .  A
C1684      N1685   1.437       .  S
N1685      H1689   1.045       .  S
N1685      H1690   1.046       .  S
N1688      H1691   1.046       .  S
N1688      H1692   1.046       .  S
C1693      C1694   1.402       .  A
C1693      C1698   1.399       .  A
C1693      H1700   1.084       .  S
C1694      C1695   1.417       .  A
C1695      C1696   1.404       .  A
C1695      N1702   1.439       .  S
C1696      C1697   1.403       .  A
C1696      H1701   1.084       .  S
C1697      C1698   1.416       .  A
C1698      N1699   1.440       .  S
N1699      H1703   1.046       .  S
N1699      H1704   1.043       .  S
N1702      H1705   1.043       .  S
N1702      H1706   1.046       .  S
C1707      C1708   1.407       .  A
C1707      C1712   1.410       .  A
C1707      H1714   1.084       .  S
C1708      C1709   1.412       .  A
C1709      C1710   1.401       .  A
C1709      N1716   1.438       .  S
C1710      C1711   1.401       .  A
C1710      H1715   1.084       .  S
C1711      C1712   1.410       .  A
C1712      N1713   1.438       .  S
N1713      H1717   1.046       .  S
N1713      H1718   1.046       .  S
N1716      H1719   1.046       .  S
N1716      H1720   1.046       .  S
C1721      C1722   1.407       .  A
C1721      C1726   1.411       .  A
C1721      H1728   1.083       .  S
C1722      C1723   1.414       .  A
C1723      C1724   1.405       .  A
C1723      N1730   1.438       .  S
C1724      C1725   1.403       .  A
C1724      H1729   1.084       .  S
C1725      C1726   1.413       .  A
C1726      N1727   1.437       .  S
N1727      H1731   1.045       .  S
N1727      H1732   1.045       .  S
N1730      H1733   1.046       .  S
N1730      H1734   1.045       .  S
C1735      C1736   1.403       .  A
C1735      C1740   1.402       .  A
C1735      H1742   1.084       .  S
C1736      C1737   1.417       .  A
C1737      C1738   1.401       .  A
C1737      N1744   1.438       .  S
C1738      C1739   1.404       .  A
C1738      H1743   1.084       .  S
C1739      C1740   1.419       .  A
C1740      N1741   1.438       .  S
N1741      H1745   1.045       .  S
N1741      H1746   1.043       .  S
N1744      H1747   1.042       .  S
N1744      H1748   1.046       .  S
C1749      C1750   1.407       .  A
C1749      C1754   1.411       .  A
C1749      H1756   1.083       .  S
C1750      C1751   1.411       .  A
C1751      C1752   1.401       .  A
C1751      N1758   1.433       .  S
C1752      C1753   1.402       .  A
C1752      H1757   1.084       .  S
C1753      C1754   1.410       .  A
C1754      N1755   1.437       .  S
N1755      H1759   1.045       .  S
N1755      H1760   1.046       .  S
N1758      H1761   1.045       .  S
N1758      H1762   1.046       .  S
C1763      C1764   1.407       .  A
C1763      C1768   1.411       .  A
C1763      H1770   1.083       .  S
C1764      C1765   1.410       .  A
C1765      C1766   1.397       .  A
C1765      N1772   1.433       .  S
C1766      C1767   1.400       .  A
C1766      H1771   1.084       .  S
C1767      C1768   1.412       .  A
C1768      N1769   1.437       .  S
N1769      H1773   1.045       .  S
N1769      H1774   1.045       .  S
N1772      H1775   1.046       .  S
N1772      H1776   1.046       .  S
C1777      C1778   1.404       .  A
C1777      C1782   1.403       .  A
C1777      H1784   1.084       .  S
C1778      C1779   1.414       .  A
C1779      C1780   1.411       .  A
C1779      N1786   1.437       .  S
C1780      C1781   1.403       .  A
C1780      H1785   1.084       .  S
C1781      C1782   1.409       .  A
C1782      N1783   1.438       .  S
N1783      H1787   1.046       .  S
N1783      H1788   1.046       .  S
N1786      H1789   1.045       .  S
N1786      H1790   1.046       .  S
C1791      C1792   1.404       .  A
C1791      C1796   1.404       .  A
C1791      H1798   1.084       .  S
C1792      C1793   1.414       .  A
C1793      C1794   1.398       .  A
C1793      N1800   1.433       .  S
C1794      C1795   1.403       .  A
C1794      H1799   1.084       .  S
C1795      C1796   1.418       .  A
C1796      N1797   1.437       .  S
N1797      H1801   1.046       .  S
N1797      H1802   1.041       .  S
N1800      H1803   1.045       .  S
N1800      H1804   1.043       .  S
C1805      C1806   1.405       .  A
C1805      C1810   1.407       .  A
C1805      H1812   1.084       .  S
C1806      C1807   1.412       .  A
C1807      C1808   1.405       .  A
C1807      N1814   1.438       .  S
C1808      C1809   1.404       .  A
C1808      H1813   1.084       .  S
C1809      C1810   1.413       .  A
C1810      N1811   1.438       .  S
N1811      H1815   1.045       .  S
N1811      H1816   1.046       .  S
N1814      H1817   1.046       .  S
N1814      H1818   1.045       .  S
C1819      C1820   1.404   1_565  A
C1819      C1824   1.405       .  A
C1819      H1826   1.084       .  S
C1820      C1821   1.414       .  A
C1821      C1822   1.402       .  A
C1821      N1828   1.432       .  S
C1822      C1823   1.403       .  A
C1822      H1827   1.084       .  S
C1823      C1824   1.412   1_545  A
C1824      N1825   1.439       .  S
N1825      H1829   1.046       .  S
N1825      H1830   1.045       .  S
N1828      H1831   1.045       .  S
N1828      H1832   1.044       .  S
C1833      C1834   1.407   1_565  A
C1833      C1838   1.413       .  A
C1833      H1840   1.083       .  S
C1834      C1835   1.414       .  A
C1835      C1836   1.402       .  A
C1835      N1842   1.439       .  S
C1836      C1837   1.401       .  A
C1836      H1841   1.083       .  S
C1837      C1838   1.412   1_545  A
C1838      N1839   1.437       .  S
N1839      H1843   1.046       .  S
N1839      H1844   1.045       .  S
N1842      H1845   1.045       .  S
N1842      H1846   1.046       .  S
C1847      C1848   1.405       .  A
C1847      C1852   1.399       .  A
C1847      H1854   1.085       .  S
C1848      C1849   1.419   1_545  A
C1849      C1850   1.407       .  A
C1849      N1856   1.439       .  S
C1850      C1851   1.405   1_565  A
C1850      H1855   1.084       .  S
C1851      C1852   1.416       .  A
C1852      N1853   1.440       .  S
N1853      H1857   1.046       .  S
N1853      H1858   1.042       .  S
N1856      H1859   1.042       .  S
N1856      H1860   1.046       .  S
C1861      C1862   1.405       .  A
C1861      C1866   1.405       .  A
C1861      H1868   1.084       .  S
C1862      C1863   1.412   1_545  A
C1863      C1864   1.407       .  A
C1863      N1870   1.432       .  S
C1864      C1865   1.405   1_565  A
C1864      H1869   1.084       .  S
C1865      C1866   1.411       .  A
C1866      N1867   1.432       .  S
N1867      H1871   1.045       .  S
N1867      H1872   1.046       .  S
N1870      H1873   1.045       .  S
N1870      H1874   1.046       .  S
C1875      C1876   1.402       .  A
C1875      C1880   1.396       .  A
C1875      H1882   1.084       .  S
C1876      C1877   1.414   1_655  A
C1877      C1878   1.405       .  A
C1877      N1884   1.432       .  S
C1878      C1879   1.408   1_455  A
C1878      H1883   1.084       .  S
C1879      C1880   1.419       .  A
C1880      N1881   1.438       .  S
N1881      H1885   1.045       .  S
N1881      H1886   1.044       .  S
N1884      H1887   1.045       .  S
N1884      H1888   1.045       .  S
C1889      C1890   1.401       .  A
C1889      C1894   1.398       .  A
C1889      H1896   1.084       .  S
C1890      C1891   1.412   1_455  A
C1891      C1892   1.400       .  A
C1891      N1898   1.433       .  S
C1892      C1893   1.405   1_655  A
C1892      H1897   1.084       .  S
C1893      C1894   1.417       .  A
C1894      N1895   1.438       .  S
N1895      H1899   1.046       .  S
N1895      H1900   1.043       .  S
N1898      H1901   1.046       .  S
N1898      H1902   1.045       .  S
C1903      C1904   1.405       .  A
C1903      C1908   1.400       .  A
C1903      H1910   1.084       .  S
C1904      C1905   1.415   1_455  A
C1905      C1906   1.411       .  A
C1905      N1912   1.437       .  S
C1906      C1907   1.404   1_655  A
C1906      H1911   1.084       .  S
C1907      C1908   1.410       .  A
C1908      N1909   1.438       .  S
N1909      H1913   1.045       .  S
N1909      H1914   1.045       .  S
N1912      H1915   1.046       .  S
N1912      H1916   1.046       .  S
C1917      C1918   1.402       .  A
C1917      C1922   1.395       .  A
C1917      H1924   1.084       .  S
C1918      C1919   1.412   1_455  A
C1919      C1920   1.411       .  A
C1919      N1926   1.437       .  S
C1920      C1921   1.404   1_655  A
C1920      H1925   1.084       .  S
C1921      C1922   1.412       .  A
C1922      N1923   1.433       .  S
N1923      H1927   1.045       .  S
N1923      H1928   1.045       .  S
N1926      H1929   1.045       .  S
N1926      H1930   1.045       .  S
C1931      C1932   1.405       .  A
C1931      C1936   1.402       .  A
C1931      H1938   1.084       .  S
C1932      C1933   1.418   1_455  A
C1933      C1934   1.401       .  A
C1933      N1940   1.440       .  S
C1934      C1935   1.402   1_655  A
C1934      H1939   1.084       .  S
C1935      C1936   1.417       .  A
C1936      N1937   1.439       .  S
N1937      H1941   1.046       .  S
N1937      H1942   1.043       .  S
N1940      H1943   1.042       .  S
N1940      H1944   1.046       .  S
C1945      C1946   1.406   1_545  A
C1945      C1950   1.409       .  A
C1945      H1952   1.083       .  S
C1946      C1947   1.415       .  A
C1947      C1948   1.402       .  A
C1947      N1954   1.438       .  S
C1948      C1949   1.401   1_565  A
C1948      H1953   1.084       .  S
C1949      C1950   1.411       .  A
C1950      N1951   1.438       .  S
N1951      H1955   1.046       .  S
N1951      H1956   1.045       .  S
N1954      H1957   1.045       .  S
N1954      H1958   1.046       .  S
C1959      C1960   1.405       .  A
C1959      C1964   1.401       .  A
C1959      H1966   1.085       .  S
C1960      C1961   1.421       .  A
C1961      C1962   1.408       .  A
C1961      N1968   1.439       .  S
C1962      C1963   1.404       .  A
C1962      H1967   1.084       .  S
C1963      C1964   1.417       .  A
C1964      N1965   1.440       .  S
N1965      H1969   1.046       .  S
N1965      H1970   1.041       .  S
N1968      H1971   1.042       .  S
N1968      H1972   1.045       .  S
C1973      C1974   1.404       .  A
C1973      C1978   1.405       .  A
C1973      H1980   1.084       .  S
C1974      C1975   1.417       .  A
C1975      C1976   1.400       .  A
C1975      N1982   1.439       .  S
C1976      C1977   1.401       .  A
C1976      H1981   1.085       .  S
C1977      C1978   1.416       .  A
C1978      N1979   1.439       .  S
N1979      H1983   1.045       .  S
N1979      H1984   1.043       .  S
N1982      H1985   1.043       .  S
N1982      H1986   1.045       .  S
C1987      C1988   1.404       .  A
C1987      C1992   1.401       .  A
C1987      H1994   1.084       .  S
C1988      C1989   1.420       .  A
C1989      C1990   1.404       .  A
C1989      N1996   1.440       .  S
C1990      C1991   1.401       .  A
C1990      H1995   1.084       .  S
C1991      C1992   1.417       .  A
C1992      N1993   1.441       .  S
N1993      H1997   1.046       .  S
N1993      H1998   1.042       .  S
N1996      H1999   1.041       .  S
N1996      H2000   1.046       .  S
C2001      C2002   1.403       .  A
C2001      C2006   1.398       .  A
C2001      H2008   1.084       .  S
C2002      C2003   1.419       .  A
C2003      C2004   1.405       .  A
C2003      N2010   1.439       .  S
C2004      C2005   1.402       .  A
C2004      H2009   1.084       .  S
C2005      C2006   1.415       .  A
C2006      N2007   1.440       .  S
N2007      H2011   1.046       .  S
N2007      H2012   1.043       .  S
N2010      H2013   1.042       .  S
N2010      H2014   1.046       .  S
C2015      C2016   1.403       .  A
C2015      C2020   1.400       .  A
C2015      H2022   1.084       .  S
C2016      C2017   1.415       .  A
C2017      C2018   1.403       .  A
C2017      N2024   1.433       .  S
C2018      C2019   1.404       .  A
C2018      H2023   1.084       .  S
C2019      C2020   1.416       .  A
C2020      N2021   1.433       .  S
N2021      H2025   1.045       .  S
N2021      H2026   1.043       .  S
N2024      H2027   1.044       .  S
N2024      H2028   1.046       .  S
C2029      C2030   1.400       .  A
C2029      C2034   1.401       .  A
C2029      H2036   1.084       .  S
C2030      C2031   1.410   1_655  A
C2031      C2032   1.411       .  A
C2031      N2038   1.437       .  S
C2032      C2033   1.406   1_455  A
C2032      H2037   1.083       .  S
C2033      C2034   1.413       .  A
C2034      N2035   1.438       .  S
N2035      H2039   1.045       .  S
N2035      H2040   1.046       .  S
N2038      H2041   1.046       .  S
N2038      H2042   1.046       .  S
C2043      C2044   1.405   1_655  A
C2043      C2048   1.402       .  A
C2043      H2050   1.084       .  S
C2044      C2045   1.412       .  A
C2045      C2046   1.409       .  A
C2045      N2052   1.438       .  S
C2046      C2047   1.404   1_455  A
C2046      H2051   1.084       .  S
C2047      C2048   1.408       .  A
C2048      N2049   1.438       .  S
N2049      H2053   1.046       .  S
N2049      H2054   1.045       .  S
N2052      H2055   1.046       .  S
N2052      H2056   1.046       .  S
C2057      C2058   1.406   1_655  A
C2057      C2062   1.409       .  A
C2057      H2064   1.083       .  S
C2058      C2059   1.414       .  A
C2059      C2060   1.402       .  A
C2059      N2066   1.438       .  S
C2060      C2061   1.400   1_455  A
C2060      H2065   1.084       .  S
C2061      C2062   1.411       .  A
C2062      N2063   1.437       .  S
N2063      H2067   1.046       .  S
N2063      H2068   1.046       .  S
N2066      H2069   1.045       .  S
N2066      H2070   1.046       .  S
C2071      C2072   1.403   1_655  A
C2071      C2076   1.405       .  A
C2071      H2078   1.084       .  S
C2072      C2073   1.415       .  A
C2073      C2074   1.398       .  A
C2073      N2080   1.439       .  S
C2074      C2075   1.401       .  A
C2074      H2079   1.085       .  S
C2075      C2076   1.418   1_455  A
C2076      N2077   1.438       .  S
N2077      H2081   1.045       .  S
N2077      H2082   1.042       .  S
N2080      H2083   1.044       .  S
N2080      H2084   1.045       .  S
C2085      C2086   1.402       .  A
C2085      C2090   1.404       .  A
C2085      H2092   1.084       .  S
C2086      C2087   1.408   1_455  A
C2087      C2088   1.404       .  A
C2087      N2094   1.438       .  S
C2088      C2089   1.404   1_655  A
C2088      H2093   1.084       .  S
C2089      C2090   1.420       .  A
C2090      N2091   1.439       .  S
N2091      H2095   1.046       .  S
N2091      H2096   1.042       .  S
N2094      H2097   1.046       .  S
N2094      H2098   1.046       .  S
C2099      C2100   1.401   1_565  A
C2099      C2104   1.400       .  A
C2099      H2106   1.084       .  S
C2100      C2101   1.409       .  A
C2101      C2102   1.404       .  A
C2101      N2108   1.438       .  S
C2102      C2103   1.406       .  A
C2102      H2107   1.084       .  S
C2103      C2104   1.417   1_545  A
C2104      N2105   1.433       .  S
N2105      H2109   1.041       .  S
N2105      H2110   1.047       .  S
N2108      H2111   1.046       .  S
N2108      H2112   1.046       .  S
C2113      C2114   1.405       .  A
C2113      C2118   1.410       .  A
C2113      H2120   1.083       .  S
C2114      C2115   1.410   1_545  A
C2115      C2116   1.399       .  A
C2115      N2122   1.433       .  S
C2116      C2117   1.403   1_565  A
C2116      H2121   1.084       .  S
C2117      C2118   1.412       .  A
C2118      N2119   1.437       .  S
N2119      H2123   1.046       .  S
N2119      H2124   1.045       .  S
N2122      H2125   1.045       .  S
N2122      H2126   1.046       .  S
C2127      C2128   1.401   1_565  A
C2127      C2132   1.395       .  A
C2127      H2134   1.084       .  S
C2128      C2129   1.411       .  A
C2129      C2130   1.409       .  A
C2129      N2136   1.438       .  S
C2130      C2131   1.406       .  A
C2130      H2135   1.084       .  S
C2131      C2132   1.415   1_545  A
C2132      N2133   1.434       .  S
N2133      H2137   1.043       .  S
N2133      H2138   1.046       .  S
N2136      H2139   1.045       .  S
N2136      H2140   1.046       .  S
C2141      C2142   1.402   1_565  A
C2141      C2146   1.404       .  A
C2141      H2148   1.084       .  S
C2142      C2143   1.408       .  A
C2143      C2144   1.408       .  A
C2143      N2150   1.432       .  S
C2144      C2145   1.404       .  A
C2144      H2149   1.084       .  S
C2145      C2146   1.411   1_545  A
C2146      N2147   1.439       .  S
N2147      H2151   1.046       .  S
N2147      H2152   1.045       .  S
N2150      H2153   1.046       .  S
N2150      H2154   1.045       .  S
C2155      C2156   1.404       .  A
C2155      C2160   1.399       .  A
C2155      H2162   1.084       .  S
C2156      C2157   1.416   1_545  A
C2157      C2158   1.400       .  A
C2157      N2164   1.433       .  S
C2158      C2159   1.403   1_565  A
C2158      H2163   1.084       .  S
C2159      C2160   1.412       .  A
C2160      N2161   1.433       .  S
N2161      H2165   1.044       .  S
N2161      H2166   1.046       .  S
N2164      H2167   1.046       .  S
N2164      H2168   1.043       .  S
C2169      C2170   1.410       .  A
C2169      C2174   1.413       .  A
C2169      H2176   1.083       .  S
C2170      C2171   1.415   1_556  A
C2171      C2172   1.404       .  A
C2171      N2178   1.438       .  S
C2172      C2173   1.403   1_554  A
C2172      H2177   1.084       .  S
C2173      C2174   1.412       .  A
C2174      N2175   1.437       .  S
N2175      H2179   1.045       .  S
N2175      H2180   1.046       .  S
N2178      H2181   1.046       .  S
N2178      H2182   1.046       .  S
C2183      C2184   1.404   1_554  A
C2183      C2188   1.406       .  A
C2183      H2190   1.084       .  S
C2184      C2185   1.416       .  A
C2185      C2186   1.405       .  A
C2185      N2192   1.432       .  S
C2186      C2187   1.404       .  A
C2186      H2191   1.084       .  S
C2187      C2188   1.412   1_556  A
C2188      N2189   1.439       .  S
N2189      H2193   1.046       .  S
N2189      H2194   1.045       .  S
N2192      H2195   1.046       .  S
N2192      H2196   1.044       .  S
C2197      C2198   1.406       .  A
C2197      C2202   1.413       .  A
C2197      H2204   1.083       .  S
C2198      C2199   1.411   1_556  A
C2199      C2200   1.399       .  A
C2199      N2206   1.433       .  S
C2200      C2201   1.401   1_554  A
C2200      H2205   1.084       .  S
C2201      C2202   1.413       .  A
C2202      N2203   1.437       .  S
N2203      H2207   1.045       .  S
N2203      H2208   1.045       .  S
N2206      H2209   1.046       .  S
N2206      H2210   1.046       .  S
C2211      C2212   1.403       .  A
C2211      C2216   1.403       .  A
C2211      H2218   1.084       .  S
C2212      C2213   1.417   1_556  A
C2213      C2214   1.398       .  A
C2213      N2220   1.440       .  S
C2214      C2215   1.401   1_554  A
C2214      H2219   1.085       .  S
C2215      C2216   1.416       .  A
C2216      N2217   1.439       .  S
N2217      H2221   1.046       .  S
N2217      H2222   1.043       .  S
N2220      H2223   1.043       .  S
N2220      H2224   1.045       .  S
C2225      C2226   1.403       .  A
C2225      C2230   1.400       .  A
C2225      H2232   1.084       .  S
C2226      C2227   1.414   1_556  A
C2227      C2228   1.402       .  A
C2227      N2234   1.433       .  S
C2228      C2229   1.404   1_554  A
C2228      H2233   1.084       .  S
C2229      C2230   1.414       .  A
C2230      N2231   1.432       .  S
N2231      H2235   1.044       .  S
N2231      H2236   1.046       .  S
N2234      H2237   1.046       .  S
N2234      H2238   1.044       .  S
C2239      C2240   1.401       .  A
C2239      C2244   1.397       .  A
C2239      H2246   1.085       .  S
C2240      C2241   1.412       .  A
C2241      C2242   1.409       .  A
C2241      N2248   1.438       .  S
C2242      C2243   1.404       .  A
C2242      H2247   1.084       .  S
C2243      C2244   1.416       .  A
C2244      N2245   1.436       .  S
N2245      H2249   1.046       .  S
N2245      H2250   1.041       .  S
N2248      H2251   1.044       .  S
N2248      H2252   1.045       .  S
C2253      C2254   1.405       .  A
C2253      C2258   1.409       .  A
C2253      H2260   1.084       .  S
C2254      C2255   1.412       .  A
C2255      C2256   1.400       .  A
C2255      N2262   1.438       .  S
C2256      C2257   1.400       .  A
C2256      H2261   1.084       .  S
C2257      C2258   1.411       .  A
C2258      N2259   1.438       .  S
N2259      H2263   1.046       .  S
N2259      H2264   1.046       .  S
N2262      H2265   1.046       .  S
N2262      H2266   1.045       .  S
C2267      C2268   1.403       .  A
C2267      C2272   1.402       .  A
C2267      H2274   1.084       .  S
C2268      C2269   1.416       .  A
C2269      C2270   1.401       .  A
C2269      N2276   1.433       .  S
C2270      C2271   1.402       .  A
C2270      H2275   1.084       .  S
C2271      C2272   1.410       .  A
C2272      N2273   1.439       .  S
N2273      H2277   1.046       .  S
N2273      H2278   1.045       .  S
N2276      H2279   1.046       .  S
N2276      H2280   1.043       .  S
C2281      C2282   1.406       .  A
C2281      C2286   1.411       .  A
C2281      H2288   1.083       .  S
C2282      C2283   1.413       .  A
C2283      C2284   1.405       .  A
C2283      N2290   1.438       .  S
C2284      C2285   1.404       .  A
C2284      H2289   1.084       .  S
C2285      C2286   1.412       .  A
C2286      N2287   1.437       .  S
N2287      H2291   1.046       .  S
N2287      H2292   1.045       .  S
N2290      H2293   1.045       .  S
N2290      H2294   1.046       .  S
C2295      C2296   1.403       .  A
C2295      C2300   1.402       .  A
C2295      H2302   1.084       .  S
C2296      C2297   1.411       .  A
C2297      C2298   1.403       .  A
C2297      N2304   1.432       .  S
C2298      C2299   1.404       .  A
C2298      H2303   1.084       .  S
C2299      C2300   1.410       .  A
C2300      N2301   1.432       .  S
N2301      H2305   1.045       .  S
N2301      H2306   1.046       .  S
N2304      H2307   1.046       .  S
N2304      H2308   1.045       .  S
C2309      C2310   1.405       .  A
C2309      C2314   1.409       .  A
C2309      H2316   1.083       .  S
C2310      C2311   1.411       .  A
C2311      C2312   1.403       .  A
C2311      N2318   1.438       .  S
C2312      C2313   1.404       .  A
C2312      H2317   1.084       .  S
C2313      C2314   1.412       .  A
C2314      N2315   1.437       .  S
N2315      H2319   1.046       .  S
N2315      H2320   1.045       .  S
N2318      H2321   1.045       .  S
N2318      H2322   1.046       .  S
C2323      C2324   1.403       .  A
C2323      C2328   1.405       .  A
C2323      H2330   1.084       .  S
C2324      C2325   1.409       .  A
C2325      C2326   1.405       .  A
C2325      N2332   1.432       .  S
C2326      C2327   1.403       .  A
C2326      H2331   1.084       .  S
C2327      C2328   1.413       .  A
C2328      N2329   1.439       .  S
N2329      H2333   1.046       .  S
N2329      H2334   1.045       .  S
N2332      H2335   1.046       .  S
N2332      H2336   1.045       .  S
C2337      C2338   1.400       .  A
C2337      C2342   1.398       .  A
C2337      H2344   1.084       .  S
C2338      C2339   1.412       .  A
C2339      C2340   1.409       .  A
C2339      N2346   1.437       .  S
C2340      C2341   1.403       .  A
C2340      H2345   1.084       .  S
C2341      C2342   1.411       .  A
C2342      N2343   1.433       .  S
N2343      H2347   1.046       .  S
N2343      H2348   1.046       .  S
N2346      H2349   1.045       .  S
N2346      H2350   1.045       .  S
C2351      C2352   1.405       .  A
C2351      C2356   1.399       .  A
C2351      H2358   1.084       .  S
C2352      C2353   1.410       .  A
C2353      C2354   1.407       .  A
C2353      N2360   1.432       .  S
C2354      C2355   1.404       .  A
C2354      H2359   1.084       .  S
C2355      C2356   1.411       .  A
C2356      N2357   1.439       .  S
N2357      H2361   1.046       .  S
N2357      H2362   1.045       .  S
N2360      H2363   1.046       .  S
N2360      H2364   1.045       .  S
C2365      C2366   1.405       .  A
C2365      C2370   1.406       .  A
C2365      H2372   1.084       .  S
C2366      C2367   1.413       .  A
C2367      C2368   1.405       .  A
C2367      N2374   1.438       .  S
C2368      C2369   1.402       .  A
C2368      H2373   1.084       .  S
C2369      C2370   1.411       .  A
C2370      N2371   1.438       .  S
N2371      H2375   1.045       .  S
N2371      H2376   1.046       .  S
N2374      H2377   1.046       .  S
N2374      H2378   1.046       .  S
C2379      C2380   1.404       .  A
C2379      C2384   1.407       .  A
C2379      H2386   1.083       .  S
C2380      C2381   1.413       .  A
C2381      C2382   1.401       .  A
C2381      N2388   1.438       .  S
C2382      C2383   1.401       .  A
C2382      H2387   1.084       .  S
C2383      C2384   1.410       .  A
C2384      N2385   1.438       .  S
N2385      H2389   1.045       .  S
N2385      H2390   1.046       .  S
N2388      H2391   1.045       .  S
N2388      H2392   1.046       .  S
C2393      C2394   1.405       .  A
C2393      C2398   1.406       .  A
C2393      H2400   1.083       .  S
C2394      C2395   1.414       .  A
C2395      C2396   1.403       .  A
C2395      N2402   1.439       .  S
C2396      C2397   1.403       .  A
C2396      H2401   1.084       .  S
C2397      C2398   1.410       .  A
C2398      N2399   1.437       .  S
N2399      H2403   1.046       .  S
N2399      H2404   1.046       .  S
N2402      H2405   1.046       .  S
N2402      H2406   1.046       .  S
C2407      C2408   1.403       .  A
C2407      C2412   1.398       .  A
C2407      H2414   1.085       .  S
C2408      C2409   1.419       .  A
C2409      C2410   1.405       .  A
C2409      N2416   1.439       .  S
C2410      C2411   1.403       .  A
C2410      H2415   1.084       .  S
C2411      C2412   1.416       .  A
C2412      N2413   1.440       .  S
N2413      H2417   1.046       .  S
N2413      H2418   1.041       .  S
N2416      H2419   1.042       .  S
N2416      H2420   1.046       .  S
C2421      C2422   1.407       .  A
C2421      C2426   1.409       .  A
C2421      H2428   1.083       .  S
C2422      C2423   1.413       .  A
C2423      C2424   1.399       .  A
C2423      N2430   1.439       .  S
C2424      C2425   1.402       .  A
C2424      H2429   1.084       .  S
C2425      C2426   1.410       .  A
C2426      N2427   1.437       .  S
N2427      H2431   1.045       .  S
N2427      H2432   1.046       .  S
N2430      H2433   1.045       .  S
N2430      H2434   1.046       .  S
C2435      C2436   1.402       .  A
C2435      C2440   1.398       .  A
C2435      H2442   1.084       .  S
C2436      C2437   1.417       .  A
C2437      C2438   1.402       .  A
C2437      N2444   1.439       .  S
C2438      C2439   1.404       .  A
C2438      H2443   1.084       .  S
C2439      C2440   1.414       .  A
C2440      N2441   1.433       .  S
N2441      H2445   1.043       .  S
N2441      H2446   1.046       .  S
N2444      H2447   1.043       .  S
N2444      H2448   1.046       .  S
