geometry optimzed in LAMMPS
_audit_creation_date              2020-11-30 
_audit_creation_method            'lammps2cif' 
_symmetry_space_group_name_H-M    'P1' 
_symmetry_Int_Tables_number       1 
_symmetry_cell_setting            triclinic 
loop_ 
_symmetry_equiv_pos_as_xyz 
  x,y,z 
_cell_length_a                    26.97866159121223 
_cell_length_b                    51.28592222818228 
_cell_length_c                    44.27147841544514 
_cell_angle_alpha                 89.23657930586222 
_cell_angle_beta                  89.9332029252751 
_cell_angle_gamma                 89.82977312053401 
loop_ 
_atom_site_label 
_atom_site_type_symbol 
_atom_site_fract_x 
_atom_site_fract_y 
_atom_site_fract_z 
_atom_site_charge 
O1          O  0.45877694  0.00035996  0.04412007    -0.73190
O2          O  0.45766000  0.99931691  0.45332750    -0.74170
O3          O  0.45873662  0.96074042  0.50008311    -0.62790
O4          O  0.45775191  0.03901736  0.99739497    -0.71200
O5          O  0.54006485  0.03913266  0.99679889    -0.70750
O6          O  0.54105189  0.96091156  0.49951816    -0.62000
O7          O  0.54004386  0.99937724  0.45287120    -0.74510
O8          O  0.54097094  0.00076656  0.04367995    -0.73290
Cu9        Cu  0.45535323  0.99985475  0.49875524     1.04560
Cu10       Cu  0.54340683  0.00004592  0.99822765     1.04330
C11         C  0.50003667  0.00070970  0.05825921     0.93010
C12         C  0.49867325  0.99922315  0.43887974     0.92150
C13         C  0.50005816  0.94851832  0.00015864     0.84300
C14         C  0.49878015  0.05138217  0.49654655     0.90570
O15         O  0.54055281  0.00071409  0.20381729    -0.73190
O16         O  0.53973260  0.99967604  0.29462923    -0.74170
O17         O  0.54077475  0.96102172  0.24929861    -0.62790
O18         O  0.53948473  0.03926701  0.24912299    -0.71200
O19         O  0.45716549  0.03904703  0.24923566    -0.70750
O20         O  0.45846216  0.96080477  0.24875736    -0.62000
O21         O  0.45735420  0.99929404  0.29441581    -0.74510
O22         O  0.45835530  0.00045580  0.20355064    -0.73290
Cu23       Cu  0.54300772  0.00017372  0.24922583     1.04560
Cu24       Cu  0.45495332  0.99989586  0.24897819     1.04330
C25         C  0.49961284  0.00070217  0.18932153     0.93010
C26         C  0.49841937  0.99936140  0.30874872     0.92150
C27         C  0.49980422  0.94860683  0.24896957     0.84300
C28         C  0.49814154  0.05146281  0.24924609     0.90570
N29         N  0.42203046  0.21279646  0.50505666    -0.27530
N30         N  0.39795446  0.19096700  0.49945898    -0.35390
C31         C  0.34923198  0.19619711  0.49734834     0.00810
C32         C  0.34216622  0.22255308  0.50201279     0.06830
C33         C  0.38911713  0.23247965  0.50688261    -0.06270
H34         H  0.32102910  0.18187558  0.49258212     0.07500
H35         H  0.39870221  0.25256855  0.51112447     0.08700
Cu36       Cu  0.43178084  0.15490266  0.49522041     0.44170
Cu37       Cu  0.49871445  0.21509266  0.50803701     0.41990
Cu38       Cu  0.56511002  0.15477249  0.49411821     0.43880
N39         N  0.47394304  0.12112651  0.49417032    -0.34920
N40         N  0.52293358  0.12109286  0.49372004    -0.29170
C41         C  0.53927386  0.09629751  0.49426425    -0.05270
C42         C  0.49856745  0.07999104  0.49516194     0.06940
C43         C  0.45774426  0.09634970  0.49501550     0.00740
H44         H  0.57792357  0.09059610  0.49444355     0.08390
H45         H  0.41915089  0.09070066  0.49590024     0.07470
N46         N  0.59924723  0.19065567  0.49844599    -0.36370
N47         N  0.57534381  0.21251237  0.50454178    -0.28550
C48         C  0.60836521  0.23202199  0.50652794    -0.03790
C49         C  0.65522465  0.22197232  0.50122016     0.04820
C50         C  0.64797594  0.19570768  0.49613788     0.02910
H51         H  0.59891602  0.25208194  0.51121440     0.08020
H52         H  0.67606191  0.18132108  0.49101436     0.06850
N53         N  0.57368028  0.21332974  0.24704872    -0.27530
N54         N  0.59788813  0.19101199  0.24455668    -0.35390
C55         C  0.64683713  0.19580546  0.24396242     0.00810
C56         C  0.65379544  0.22239783  0.24651093     0.06830
C57         C  0.60661569  0.23290631  0.24841001    -0.06270
H58         H  0.67529158  0.18096820  0.24243209     0.07500
H59         H  0.59696116  0.25322981  0.25113840     0.08700
Cu60       Cu  0.56370782  0.15490621  0.24453212     0.44170
Cu61       Cu  0.49713621  0.21605520  0.24932430     0.41990
Cu62       Cu  0.43104981  0.15474885  0.25598448     0.43880
N63         N  0.52179525  0.12122058  0.24796657    -0.34920
N64         N  0.47324753  0.12113024  0.25209434    -0.29170
C65         C  0.45727243  0.09631229  0.25303574    -0.05270
C66         C  0.49779739  0.08006937  0.24950595     0.06940
C67         C  0.53808870  0.09647439  0.24642187     0.00740
H68         H  0.41903941  0.09054888  0.25616875     0.08390
H69         H  0.57640473  0.09087219  0.24315958     0.07470
N70         N  0.39672225  0.19094608  0.25549807    -0.36370
N71         N  0.42066985  0.21325242  0.25213320    -0.28550
C72         C  0.38753560  0.23285846  0.25054963    -0.03790
C73         C  0.34049547  0.22239932  0.25325571     0.04820
C74         C  0.34776049  0.19579257  0.25649228     0.02910
H75         H  0.39696211  0.25318044  0.24718238     0.08020
H76         H  0.31948346  0.18097771  0.25877164     0.06850
N77         N  0.57736615  0.78670562  0.49622780    -0.27530
N78         N  0.60147310  0.80906236  0.49411911    -0.35390
C79         C  0.65045278  0.80420871  0.49369119     0.00810
C80         C  0.65754095  0.77753057  0.49596854     0.06830
C81         C  0.61040234  0.76703831  0.49751680    -0.06270
H82         H  0.67883726  0.81904929  0.49252417     0.07500
H83         H  0.60083656  0.74665156  0.50001909     0.08700
Cu84       Cu  0.56719844  0.84524669  0.49461177     0.44170
Cu85       Cu  0.50082775  0.78398606  0.49830555     0.41990
Cu86       Cu  0.43464449  0.84502809  0.50660617     0.43880
N87         N  0.52501834  0.87882664  0.49878299    -0.34920
N88         N  0.47652107  0.87874706  0.50313119    -0.29170
C89         C  0.46019675  0.90351136  0.50435983    -0.05270
C90         C  0.50042478  0.91990475  0.50081166     0.06940
C91         C  0.54092990  0.90363919  0.49737938     0.00740
H92         H  0.42186708  0.90913612  0.50750972     0.08390
H93         H  0.57907026  0.90938514  0.49379736     0.07470
N94         N  0.40037012  0.80895149  0.50549882    -0.36370
N95         N  0.42437287  0.78675656  0.50147184    -0.28550
C96         C  0.39131894  0.76727053  0.49966695    -0.03790
C97         C  0.34426370  0.77767848  0.50293928     0.04820
C98         C  0.35145137  0.80413803  0.50672436     0.02910
H99         H  0.40080627  0.74707360  0.49581778     0.08020
H100        H  0.32314594  0.81889420  0.50957416     0.06850
N101        N  0.57688564  0.78662265  0.25492718    -0.27530
N102        N  0.60118087  0.80896660  0.25546544    -0.35390
C103        C  0.65014147  0.80405142  0.25514633     0.00810
C104        C  0.65698681  0.77734838  0.25413883     0.06830
C105        C  0.60978361  0.76688992  0.25405200    -0.06270
H106        H  0.67864669  0.81884925  0.25501741     0.07500
H107        H  0.60006535  0.74648172  0.25279864     0.08700
Cu108      Cu  0.56713518  0.84521425  0.25438896     0.44170
Cu109      Cu  0.50024051  0.78399315  0.25400028     0.41990
Cu110      Cu  0.43429062  0.84519700  0.24456141     0.43880
N111        N  0.52487573  0.87888937  0.25076884    -0.34920
N112        N  0.47622594  0.87887196  0.24720256    -0.29170
C113        C  0.45984225  0.90365138  0.24604589    -0.05270
C114        C  0.50017707  0.91999705  0.24886189     0.06940
C115        C  0.54081969  0.90368432  0.25177135     0.00740
H116        H  0.42141230  0.90931874  0.24337536     0.08390
H117        H  0.57910119  0.90938016  0.25462020     0.07470
N118        N  0.39991970  0.80913094  0.24614495    -0.36370
N119        N  0.42378486  0.78686374  0.25061126    -0.28550
C120        C  0.39065147  0.76735679  0.25226442    -0.03790
C121        C  0.34370547  0.77783592  0.24842710     0.04820
C122        C  0.35103985  0.80435523  0.24449151     0.02910
H123        H  0.40001685  0.74707398  0.25623442     0.08020
H124        H  0.32285763  0.81915574  0.24109480     0.06850
N125        N  0.92469062  0.71325518  0.50323560    -0.27530
N126        N  0.90079939  0.69083552  0.50522501    -0.35390
C127        C  0.85177817  0.69555198  0.50579841     0.00810
C128        C  0.84442520  0.72222213  0.50372509     0.06830
C129        C  0.89146910  0.73284476  0.50215828    -0.06270
H130        H  0.82354689  0.68062807  0.50690315     0.07500
H131        H  0.90083520  0.75326610  0.49976776     0.08700
Cu132      Cu  0.93558806  0.65482225  0.50434261     0.44170
Cu133      Cu  0.00121481  0.71600912  0.50104958     0.41990
Cu134      Cu  0.06819178  0.65488415  0.49266939     0.43880
N135        N  0.97769065  0.62124706  0.50009059    -0.34920
N136        N  0.02623448  0.62115828  0.49594195    -0.29170
C137        C  0.04225690  0.59631208  0.49478232    -0.05270
C138        C  0.00172538  0.58008474  0.49816660     0.06940
C139        C  0.96143978  0.59651704  0.50139981     0.00740
H140        H  0.08053103  0.59052514  0.49177535     0.08390
H141        H  0.92317590  0.59093298  0.50483637     0.07470
N142        N  0.10190936  0.69112654  0.49391959    -0.36370
N143        N  0.07768977  0.71326389  0.49795303    -0.28550
C144        C  0.11056389  0.73282600  0.49984980    -0.03790
C145        C  0.15771681  0.72254149  0.49662906     0.04820
C146        C  0.15078500  0.69607149  0.49277949     0.02910
H147        H  0.10088079  0.75299244  0.50373221     0.08020
H148        H  0.17924160  0.68139281  0.48994816     0.06850
N149        N  0.92379551  0.71316723  0.24560705    -0.27530
N150        N  0.89987787  0.69071514  0.24521428    -0.35390
C151        C  0.85083290  0.69539852  0.24537440     0.00810
C152        C  0.84353016  0.72208026  0.24613841     0.06830
C153        C  0.89056828  0.73275706  0.24623863    -0.06270
H154        H  0.82258522  0.68046448  0.24557653     0.07500
H155        H  0.89994199  0.75321805  0.24735036     0.08700
Cu156      Cu  0.93475954  0.65471754  0.24670009     0.44170
Cu157      Cu  0.00041081  0.71597596  0.24664445     0.41990
Cu158      Cu  0.06763368  0.65480525  0.25622364     0.43880
N159        N  0.97718660  0.62112433  0.25037390    -0.34920
N160        N  0.02587169  0.62104287  0.25375787    -0.29170
C161        C  0.04208730  0.59620196  0.25482437    -0.05270
C162        C  0.00153903  0.57996744  0.25213566     0.06940
C163        C  0.96104523  0.59639155  0.24942772     0.00740
H164        H  0.08048333  0.59042594  0.25735945     0.08390
H165        H  0.92267776  0.59080522  0.24670059     0.07470
N166        N  0.10114111  0.69111371  0.25446792    -0.36370
N167        N  0.07690623  0.71327509  0.24997221    -0.28550
C168        C  0.10973309  0.73291911  0.24818616    -0.03790
C169        C  0.15684811  0.72265130  0.25196548     0.04820
C170        C  0.14994526  0.69611306  0.25600917     0.02910
H171        H  0.10004008  0.75315000  0.24414609     0.08020
H172        H  0.17838086  0.68144371  0.25938296     0.06850
N173        N  0.07492419  0.28732745  0.49475072    -0.27530
N174        N  0.09862255  0.30927950  0.50027130    -0.35390
C175        C  0.14741817  0.30427431  0.50251438     0.00810
C176        C  0.15492418  0.27792490  0.49801478     0.06830
C177        C  0.10814988  0.26777690  0.49310356    -0.06270
H178        H  0.17536024  0.31873920  0.50726756     0.07500
H179        H  0.09889875  0.24762719  0.48896428     0.08700
Cu180      Cu  0.06397231  0.34514248  0.50421859     0.44170
Cu181      Cu  0.99827966  0.28481654  0.49167620     0.41990
Cu182      Cu  0.93066579  0.34517101  0.50502332     0.43880
N183        N  0.02159098  0.37884303  0.50499976    -0.34920
N184        N  0.97259883  0.37894708  0.50533886    -0.29170
C185        C  0.95638034  0.40379079  0.50475693    -0.05270
C186        C  0.99722864  0.42001674  0.50396667     0.06940
C187        C  0.03791463  0.40357194  0.50417809     0.00740
H188        H  0.91777385  0.40957150  0.50450768     0.08390
H189        H  0.07655902  0.40913914  0.50341444     0.07470
N190        N  0.89735940  0.30902757  0.50098788    -0.36370
N191        N  0.92161298  0.28722823  0.49508755    -0.28550
C192        C  0.88888079  0.26757602  0.49317799    -0.03790
C193        C  0.84185669  0.27746395  0.49833963     0.04820
C194        C  0.84870747  0.30378195  0.50326120     0.02910
H195        H  0.89863603  0.24753750  0.48859355     0.08020
H196        H  0.82038223  0.31808925  0.50820002     0.06850
N197        N  0.07307472  0.28664007  0.24821953    -0.27530
N198        N  0.09691065  0.30897340  0.24487600    -0.35390
C199        C  0.14588745  0.30419757  0.24376507     0.00810
C200        C  0.15328845  0.27759339  0.24690995     0.06830
C201        C  0.10629859  0.26706775  0.24967514    -0.06270
H202        H  0.17408127  0.31905652  0.24148825     0.07500
H203        H  0.09697816  0.24672884  0.25301314     0.08700
Cu204      Cu  0.06223461  0.34505022  0.24461868     0.44170
Cu205      Cu  0.99661463  0.28393018  0.25116940     0.41990
Cu206      Cu  0.92959506  0.34527501  0.25610995     0.43880
N207        N  0.02032623  0.37873493  0.24859574    -0.34920
N208        N  0.97177579  0.37889713  0.25271193    -0.29170
C209        C  0.95595647  0.40375375  0.25423666    -0.05270
C210        C  0.99661712  0.41992250  0.25113528     0.06940
C211        C  0.03678141  0.40344143  0.24765526     0.00740
H212        H  0.91776910  0.40958460  0.25752221     0.08390
H213        H  0.07514531  0.40897398  0.24454890     0.07470
N214        N  0.89577151  0.30904794  0.25595790    -0.36370
N215        N  0.92007526  0.28675366  0.25342987    -0.28550
C216        C  0.88722133  0.26714570  0.25199666    -0.03790
C217        C  0.84000404  0.27759329  0.25388706     0.04820
C218        C  0.84684250  0.30418842  0.25650185     0.02910
H219        H  0.89696466  0.24683841  0.24922656     0.08020
H220        H  0.81831550  0.31898595  0.25804610     0.06850
O221        O  0.04024811  0.49921626  0.04584420    -0.73190
O222        O  0.04063336  0.49942077  0.45541197    -0.74170
O223        O  0.04194093  0.53873308  0.49978161    -0.62790
O224        O  0.03926676  0.46048867  0.50138165    -0.71200
O225        O  0.95700871  0.46138531  0.50276205    -0.70750
O226        O  0.95966862  0.53959533  0.49868600    -0.62000
O227        O  0.95829742  0.49936594  0.45546519    -0.74510
O228        O  0.95860061  0.50221434  0.04573856    -0.73290
Cu229      Cu  0.04340414  0.49946136  0.50059600     1.04560
Cu230      Cu  0.95552245  0.50064147  0.50064418     1.04330
C231        C  0.99937189  0.50084684  0.06027091     0.93010
C232        C  0.99947132  0.49926177  0.44120695     0.92150
C233        C  0.00118003  0.55147309  0.49885403     0.84300
C234        C  0.99776864  0.44862714  0.50262911     0.90570
O235        O  0.04002871  0.49917961  0.20640680    -0.73190
O236        O  0.04050499  0.49920140  0.29680610    -0.74170
O237        O  0.03894827  0.46033836  0.25188575    -0.62790
O238        O  0.04179437  0.53861426  0.25134670    -0.71200
O239        O  0.95951864  0.53949218  0.25240891    -0.70750
O240        O  0.95666858  0.46132559  0.25115968    -0.62000
O241        O  0.95816274  0.49943058  0.29696573    -0.74510
O242        O  0.95836859  0.50199542  0.20656844    -0.73290
Cu243      Cu  0.04320159  0.49932544  0.25160893     1.04560
Cu244      Cu  0.95531176  0.50056215  0.25177636     1.04330
C245        C  0.99914849  0.50074251  0.19199780     0.93010
C246        C  0.99938075  0.49919732  0.31111609     0.92150
C247        C  0.99737512  0.44852560  0.25142956     0.84300
C248        C  0.00103516  0.55136025  0.25196758     0.90570
C249        C  0.97476152  0.47922898  0.39238087    -0.02090
C250        C  0.99951791  0.49914857  0.40795441     0.07590
C251        C  0.02422353  0.51905966  0.39168814    -0.02200
C252        C  0.02422536  0.51903652  0.35993603    -0.02210
C253        C  0.99950844  0.49910933  0.34436228     0.07720
C254        C  0.97475181  0.47921254  0.36061342    -0.02400
Br255      Br  0.94286007  0.45118174  0.33941200    -0.00950
Br256      Br  0.94290892  0.45120330  0.41451381    -0.01020
Br257      Br  0.05588823  0.54714740  0.33781889    -0.00980
Br258      Br  0.05585550  0.54721965  0.41282321    -0.00970
C259        C  0.95937935  0.48965527  0.11037042    -0.02090
C260        C  0.99917150  0.50102299  0.09396473     0.07590
C261        C  0.03879902  0.51245425  0.11003231    -0.02200
C262        C  0.03874992  0.51242163  0.14187412    -0.02210
C263        C  0.99902154  0.50099142  0.15828635     0.07720
C264        C  0.95927558  0.48966551  0.14220230    -0.02400
Br265      Br  0.90493549  0.47255968  0.16314439    -0.00950
Br266      Br  0.90530015  0.47243325  0.08989983    -0.01020
Br267      Br  0.09288195  0.52955405  0.16236335    -0.00980
Br268      Br  0.09288348  0.52968374  0.08899947    -0.00970
C269        C  0.25855775  0.77112019  0.26993206    -0.02090
C270        C  0.29582288  0.76378721  0.24925829     0.07590
C271        C  0.28722193  0.74296842  0.22941344    -0.02200
C272        C  0.24174193  0.72958572  0.23022763    -0.02210
C273        C  0.20453118  0.73687247  0.25095442     0.07720
C274        C  0.21307161  0.75773748  0.27074336    -0.02400
Br275      Br  0.16360719  0.76727193  0.30023712    -0.00950
Br276      Br  0.27048973  0.79853174  0.29854105    -0.01020
Br277      Br  0.22974451  0.70221217  0.20157712    -0.00980
Br278      Br  0.33661826  0.73348098  0.19985817    -0.00970
C279        C  0.73698567  0.76802832  0.22755202    -0.02090
C280        C  0.70457216  0.76310421  0.25200772     0.07590
C281        C  0.71776900  0.74458072  0.27444171    -0.02200
C282        C  0.76324004  0.73117004  0.27254652    -0.02210
C283        C  0.79571422  0.73613767  0.24812507     0.07720
C284        C  0.78244619  0.75461087  0.22564749    -0.02400
Br285      Br  0.82538931  0.76072902  0.19135328    -0.00950
Br286      Br  0.71818326  0.79213193  0.19564199    -0.01020
Br287      Br  0.78198104  0.70706016  0.30446275    -0.00980
Br288      Br  0.67473577  0.73840732  0.30868345    -0.00970
C289        C  0.26016111  0.77137805  0.48010132    -0.02090
C290        C  0.29645133  0.76364809  0.50140029     0.07590
C291        C  0.28702046  0.74238713  0.02112904    -0.02200
C292        C  0.24165444  0.72897629  0.01961024    -0.02210
C293        C  0.20540249  0.73667567  0.49827626     0.07720
C294        C  0.21479155  0.75796716  0.47858400    -0.02400
Br295      Br  0.16667658  0.76808456  0.44829264    -0.00950
Br296      Br  0.27332526  0.79939253  0.45160974    -0.01020
Br297      Br  0.22843877  0.70099201  0.04813384    -0.00980
Br298      Br  0.33508728  0.73230563  0.05146275    -0.00970
C299        C  0.76222868  0.73030134  0.47886444    -0.02090
C300        C  0.79653075  0.73629848  0.50180514     0.07590
C301        C  0.78503707  0.75586425  0.02282292    -0.02200
C302        C  0.73955858  0.76931244  0.02096239    -0.02210
C303        C  0.70529649  0.76334246  0.49799575     0.07720
C304        C  0.71674135  0.74374251  0.47701394    -0.02400
Br305      Br  0.67130059  0.73607977  0.44463987    -0.00950
Br306      Br  0.77837519  0.70473002  0.44870091    -0.01020
Br307      Br  0.72336307  0.79488242  0.05111767    -0.00980
Br308      Br  0.83040643  0.76348002  0.05524729    -0.00970
C309        C  0.75776230  0.27008725  0.22923562    -0.02090
C310        C  0.79238567  0.26346354  0.25198682     0.07590
C311        C  0.78145629  0.24324963  0.27285679    -0.02200
C312        C  0.73613398  0.22982970  0.27109110    -0.02210
C313        C  0.70148404  0.23647258  0.24835885     0.07720
C314        C  0.71244388  0.25666487  0.22746613    -0.02400
Br315      Br  0.66655846  0.26519962  0.19532886    -0.00950
Br316      Br  0.77326141  0.29655318  0.19924565    -0.01020
Br317      Br  0.72067676  0.20334579  0.30106791    -0.00980
Br318      Br  0.82739040  0.23467977  0.30495817    -0.00970
C319        C  0.28245049  0.25691954  0.27182541    -0.02090
C320        C  0.29262585  0.23653455  0.25161152     0.07590
C321        C  0.25698431  0.22973990  0.22976695    -0.02200
C322        C  0.21143918  0.24315775  0.22824890    -0.02210
C323        C  0.20123509  0.26352119  0.24848685     0.07720
C324        C  0.23690376  0.27033608  0.27030973    -0.02400
Br325      Br  0.22263226  0.29704764  0.29947771    -0.00950
Br326      Br  0.32973580  0.26573527  0.30278153    -0.01020
Br327      Br  0.16418878  0.23437209  0.19726384    -0.00980
Br328      Br  0.27130113  0.20304660  0.20058488    -0.00970
C329        C  0.74222525  0.22823863  0.01958588    -0.02090
C330        C  0.70290710  0.23623041  0.50055206     0.07590
C331        C  0.70951168  0.25766619  0.48063244    -0.02200
C332        C  0.75504463  0.27100961  0.47977374    -0.02210
C333        C  0.79432147  0.26306658  0.49886696     0.07720
C334        C  0.78775162  0.24159723  0.01874800    -0.02400
Br335      Br  0.84003570  0.23118035  0.04618689    -0.00950
Br336      Br  0.73314901  0.19983857  0.04815923    -0.01020
Br337      Br  0.76417777  0.29932072  0.45108379    -0.00980
Br338      Br  0.65722746  0.26807031  0.45318770    -0.01010
C339        C  0.20973963  0.24274671  0.01955998    -0.02090
C340        C  0.20276030  0.26368874  0.49897220     0.07590
C341        C  0.24188481  0.27125286  0.47957713    -0.02200
C342        C  0.28759784  0.25795158  0.48071475    -0.02210
C343        C  0.29452215  0.23696441  0.50124576     0.07720
C344        C  0.25544513  0.22944377  0.02069177    -0.02400
Br345      Br  0.26509703  0.20176006  0.05015206    -0.00950
Br346      Br  0.15773564  0.23300195  0.04750595    -0.01020
Br347      Br  0.33966741  0.26774116  0.45283338    -0.00980
Br348      Br  0.23228776  0.29896125  0.45014433    -0.00970
C349        C  0.49577813  0.02299198  0.35759469    -0.02090
C350        C  0.49815945  0.99925429  0.34201104     0.07590
C351        C  0.50053732  0.97546870  0.35823738    -0.02200
C352        C  0.50060599  0.97543071  0.39005350    -0.02210
C353        C  0.49828447  0.99917842  0.40562476     0.07720
C354        C  0.49584045  0.02295368  0.38939150    -0.02400
Br355      Br  0.49296402  0.05543356  0.41083212    -0.00950
Br356      Br  0.49277425  0.05552406  0.33527081    -0.01020
Br357      Br  0.50371729  0.94293067  0.41242841    -0.00980
Br358      Br  0.50355603  0.94301909  0.33675542    -0.00970
C359        C  0.53004806  0.98295124  0.10815879    -0.02090
C360        C  0.50035388  0.00092210  0.09177948     0.07590
C361        C  0.47060576  0.01891992  0.10757560    -0.02200
C362        C  0.47043555  0.01889344  0.13942098    -0.02210
C363        C  0.50000654  0.00086571  0.15579768     0.07720
C364        C  0.52986098  0.98291571  0.13999976    -0.02400
Br365      Br  0.56849596  0.95706317  0.16182308    -0.00950
Br366      Br  0.56898801  0.95717807  0.08715949    -0.01020
Br367      Br  0.43149649  0.04464618  0.16044856    -0.00980
Br368      Br  0.43188322  0.04470763  0.08572243    -0.00970
O369        O  0.45877695  0.00035997  0.54412007    -0.73190
O370        O  0.45766000  0.99931691  0.95332750    -0.74170
O371        O  0.45873661  0.96074041  0.00008310    -0.62790
O372        O  0.45775190  0.03901737  0.49739496    -0.71200
O373        O  0.54006484  0.03913267  0.49679889    -0.70750
O374        O  0.54105188  0.96091154  0.99951816    -0.62000
O375        O  0.54004387  0.99937722  0.95287120    -0.74510
O376        O  0.54097095  0.00076658  0.54367994    -0.73290
Cu377      Cu  0.45535323  0.99985474  0.99875524     1.04560
Cu378      Cu  0.54340683  0.00004594  0.49822764     1.04330
C379        C  0.50003668  0.00070971  0.55825921     0.93010
C380        C  0.49867326  0.99922314  0.93887974     0.92150
C381        C  0.50005817  0.94851834  0.50015865     0.84300
C382        C  0.49878017  0.05138215  0.99654655     0.90570
O383        O  0.54055282  0.00071410  0.70381729    -0.73190
O384        O  0.53973262  0.99967604  0.79462923    -0.74170
O385        O  0.54077477  0.96102173  0.74929860    -0.62790
O386        O  0.53948474  0.03926702  0.74912300    -0.71200
O387        O  0.45716550  0.03904704  0.74923566    -0.70750
O388        O  0.45846218  0.96080478  0.74875736    -0.62000
O389        O  0.45735421  0.99929405  0.79441581    -0.74510
O390        O  0.45835532  0.00045581  0.70355064    -0.73290
Cu391      Cu  0.54300774  0.00017373  0.74922583     1.04560
Cu392      Cu  0.45495334  0.99989587  0.74897819     1.04330
C393        C  0.49961285  0.00070218  0.68932153     0.93010
C394        C  0.49841939  0.99936141  0.80874872     0.92150
C395        C  0.49980424  0.94860684  0.74896957     0.84300
C396        C  0.49814155  0.05146282  0.74924609     0.90570
N397        N  0.42203046  0.21279644  0.00505669    -0.27530
N398        N  0.39795447  0.19096698  0.99945901    -0.35390
C399        C  0.34923199  0.19619709  0.99734836     0.00810
C400        C  0.34216623  0.22255306  0.00201282     0.06830
C401        C  0.38911713  0.23247964  0.00688264    -0.06270
H402        H  0.32102911  0.18187557  0.99258213     0.07500
H403        H  0.39870221  0.25256853  0.01112451     0.08700
Cu404      Cu  0.43178086  0.15490265  0.99522042     0.44170
Cu405      Cu  0.49871445  0.21509264  0.00803704     0.41990
Cu406      Cu  0.56511003  0.15477248  0.99411823     0.43880
N407        N  0.47394306  0.12112649  0.99417034    -0.34920
N408        N  0.52293359  0.12109284  0.99372005    -0.29170
C409        C  0.53927388  0.09629749  0.99426426    -0.05270
C410        C  0.49856746  0.07999103  0.99516195     0.06940
C411        C  0.45774428  0.09634969  0.99501551     0.00740
H412        H  0.57792359  0.09059609  0.99444356     0.08390
H413        H  0.41915090  0.09070065  0.99590025     0.07470
N414        N  0.59924724  0.19065566  0.99844601    -0.36370
N415        N  0.57534381  0.21251236  0.00454181    -0.28550
C416        C  0.60836521  0.23202198  0.00652797    -0.03790
C417        C  0.65522465  0.22197232  0.00122019     0.04820
C418        C  0.64797594  0.19570767  0.99613790     0.02910
H419        H  0.59891602  0.25208192  0.01121444     0.08020
H420        H  0.67606192  0.18132107  0.99101437     0.06850
N421        N  0.57368025  0.21332975  0.74704868    -0.27530
N422        N  0.59788811  0.19101201  0.74455664    -0.35390
C423        C  0.64683711  0.19580547  0.74396239     0.00810
C424        C  0.65379542  0.22239784  0.74651089     0.06830
C425        C  0.60661566  0.23290633  0.74840996    -0.06270
H426        H  0.67529156  0.18096822  0.74243207     0.07500
H427        H  0.59696113  0.25322982  0.75113835     0.08700
Cu428      Cu  0.56370781  0.15490622  0.74453209     0.44170
Cu429      Cu  0.49713618  0.21605521  0.74932427     0.41990
Cu430      Cu  0.43104980  0.15474886  0.75598447     0.43880
N431        N  0.52179524  0.12122059  0.74796655    -0.34920
N432        N  0.47324753  0.12113025  0.75209433    -0.29170
C433        C  0.45727244  0.09631229  0.75303574    -0.05270
C434        C  0.49779740  0.08006938  0.74950595     0.06940
C435        C  0.53808870  0.09647440  0.74642186     0.00740
H436        H  0.41903942  0.09054889  0.75616876     0.08390
H437        H  0.57640473  0.09087220  0.74315957     0.07470
N438        N  0.39672224  0.19094609  0.75549807    -0.36370
N439        N  0.42066983  0.21325242  0.75213318    -0.28550
C440        C  0.38753557  0.23285846  0.75054962    -0.03790
C441        C  0.34049544  0.22239932  0.75325571     0.04820
C442        C  0.34776048  0.19579257  0.75649228     0.02910
H443        H  0.39696208  0.25318045  0.74718236     0.08020
H444        H  0.31948345  0.18097771  0.75877166     0.06850
N445        N  0.57736613  0.78670561  0.99622780    -0.27530
N446        N  0.60147308  0.80906234  0.99411910    -0.35390
C447        C  0.65045276  0.80420870  0.99369118     0.00810
C448        C  0.65754093  0.77753056  0.99596853     0.06830
C449        C  0.61040232  0.76703830  0.99751680    -0.06270
H450        H  0.67883724  0.81904928  0.99252416     0.07500
H451        H  0.60083655  0.74665155  0.00001909     0.08700
Cu452      Cu  0.56719842  0.84524668  0.99461176     0.44170
Cu453      Cu  0.50082774  0.78398605  0.99830554     0.41990
Cu454      Cu  0.43464446  0.84502807  0.00660615     0.43880
N455        N  0.52501831  0.87882663  0.99878297    -0.34920
N456        N  0.47652104  0.87874705  0.00313118    -0.29170
C457        C  0.46019672  0.90351135  0.00435982    -0.05270
C458        C  0.50042476  0.91990474  0.00081165     0.06940
C459        C  0.54092988  0.90363917  0.99737937     0.00740
H460        H  0.42186706  0.90913611  0.00750970     0.08390
H461        H  0.57907024  0.90938512  0.99379735     0.07470
N462        N  0.40037009  0.80895148  0.00549879    -0.36370
N463        N  0.42437285  0.78675655  0.00147182    -0.28550
C464        C  0.39131893  0.76727051  0.99966693    -0.03790
C465        C  0.34426368  0.77767847  0.00293925     0.04820
C466        C  0.35145135  0.80413801  0.00672433     0.02910
H467        H  0.40080626  0.74707358  0.99581777     0.08020
H468        H  0.32314591  0.81889418  0.00957412     0.06850
N469        N  0.57688565  0.78662266  0.75492718    -0.27530
N470        N  0.60118088  0.80896661  0.75546543    -0.35390
C471        C  0.65014148  0.80405143  0.75514632     0.00810
C472        C  0.65698682  0.77734839  0.75413883     0.06830
C473        C  0.60978363  0.76688992  0.75405200    -0.06270
H474        H  0.67864671  0.81884926  0.75501740     0.07500
H475        H  0.60006536  0.74648172  0.75279865     0.08700
Cu476      Cu  0.56713519  0.84521426  0.75438895     0.44170
Cu477      Cu  0.50024052  0.78399316  0.75400028     0.41990
Cu478      Cu  0.43429063  0.84519701  0.74456141     0.43880
N479        N  0.52487575  0.87888938  0.75076883    -0.34920
N480        N  0.47622596  0.87887197  0.74720256    -0.29170
C481        C  0.45984227  0.90365139  0.74604589    -0.05270
C482        C  0.50017709  0.91999706  0.74886188     0.06940
C483        C  0.54081971  0.90368433  0.75177134     0.00740
H484        H  0.42141232  0.90931875  0.74337536     0.08390
H485        H  0.57910122  0.90938017  0.75462019     0.07470
N486        N  0.39991972  0.80913095  0.74614496    -0.36370
N487        N  0.42378487  0.78686375  0.75061127    -0.28550
C488        C  0.39065148  0.76735680  0.75226442    -0.03790
C489        C  0.34370548  0.77783593  0.74842710     0.04820
C490        C  0.35103986  0.80435524  0.74449151     0.02910
H491        H  0.40001686  0.74707399  0.75623442     0.08020
H492        H  0.32285764  0.81915575  0.74109480     0.06850
N493        N  0.92469061  0.71325517  0.00323558    -0.27530
N494        N  0.90079938  0.69083551  0.00522500    -0.35390
C495        C  0.85177815  0.69555197  0.00579841     0.00810
C496        C  0.84442519  0.72222212  0.00372508     0.06830
C497        C  0.89146908  0.73284475  0.00215827    -0.06270
H498        H  0.82354687  0.68062806  0.00690315     0.07500
H499        H  0.90083518  0.75326609  0.99976775     0.08700
Cu500      Cu  0.93558804  0.65482224  0.00434259     0.44170
Cu501      Cu  0.00121479  0.71600911  0.00104955     0.41990
Cu502      Cu  0.06819175  0.65488414  0.99266934     0.43880
N503        N  0.97769063  0.62124705  0.00009056    -0.34920
N504        N  0.02623445  0.62115827  0.99594191    -0.29170
C505        C  0.04225688  0.59631207  0.99478228    -0.05270
C506        C  0.00172535  0.58008473  0.99816656     0.06940
C507        C  0.96143975  0.59651702  0.00139978     0.00740
H508        H  0.08053101  0.59052514  0.99177530     0.08390
H509        H  0.92317588  0.59093296  0.00483634     0.07470
N510        N  0.10190934  0.69112652  0.99391954    -0.36370
N511        N  0.07768975  0.71326388  0.99795299    -0.28550
C512        C  0.11056387  0.73282598  0.99984976    -0.03790
C513        C  0.15771679  0.72254147  0.99662902     0.04820
C514        C  0.15078498  0.69607148  0.99277944     0.02910
H515        H  0.10088078  0.75299242  0.00373217     0.08020
H516        H  0.17924158  0.68139280  0.98994811     0.06850
N517        N  0.92379552  0.71316723  0.74560705    -0.27530
N518        N  0.89987788  0.69071515  0.74521428    -0.35390
C519        C  0.85083291  0.69539853  0.74537440     0.00810
C520        C  0.84353017  0.72208027  0.74613841     0.06830
C521        C  0.89056829  0.73275707  0.74623864    -0.06270
H522        H  0.82258523  0.68046449  0.74557654     0.07500
H523        H  0.89994200  0.75321806  0.74735036     0.08700
Cu524      Cu  0.93475956  0.65471754  0.74670008     0.44170
Cu525      Cu  0.00041082  0.71597597  0.74664444     0.41990
Cu526      Cu  0.06763370  0.65480526  0.75622362     0.43880
N527        N  0.97718661  0.62112434  0.75037389    -0.34920
N528        N  0.02587170  0.62104287  0.75375785    -0.29170
C529        C  0.04208731  0.59620197  0.75482434    -0.05270
C530        C  0.00153903  0.57996745  0.75213563     0.06940
C531        C  0.96104523  0.59639156  0.74942770     0.00740
H532        H  0.08048334  0.59042594  0.75735942     0.08390
H533        H  0.92267777  0.59080523  0.74670058     0.07470
N534        N  0.10114113  0.69111372  0.75446791    -0.36370
N535        N  0.07690625  0.71327510  0.74997220    -0.28550
C536        C  0.10973310  0.73291912  0.74818615    -0.03790
C537        C  0.15684812  0.72265131  0.75196548     0.04820
C538        C  0.14994527  0.69611307  0.75600916     0.02910
H539        H  0.10004009  0.75315001  0.74414609     0.08020
H540        H  0.17838088  0.68144372  0.75938295     0.06850
N541        N  0.07492419  0.28732744  0.99475074    -0.27530
N542        N  0.09862255  0.30927949  0.00027132    -0.35390
C543        C  0.14741817  0.30427430  0.00251441     0.00810
C544        C  0.15492419  0.27792488  0.99801480     0.06830
C545        C  0.10814989  0.26777689  0.99310359    -0.06270
H546        H  0.17536025  0.31873919  0.00726759     0.07500
H547        H  0.09889875  0.24762718  0.98896430     0.08700
Cu548      Cu  0.06397232  0.34514247  0.00421861     0.44170
Cu549      Cu  0.99827966  0.28481653  0.99167622     0.41990
Cu550      Cu  0.93066580  0.34517099  0.00502334     0.43880
N551        N  0.02159098  0.37884302  0.00499977    -0.34920
N552        N  0.97259883  0.37894707  0.00533887    -0.29170
C553        C  0.95638034  0.40379078  0.00475693    -0.05270
C554        C  0.99722864  0.42001672  0.00396666     0.06940
C555        C  0.03791463  0.40357193  0.00417808     0.00740
H556        H  0.91777385  0.40957149  0.00450768     0.08390
H557        H  0.07655902  0.40913913  0.00341443     0.07470
N558        N  0.89735941  0.30902756  0.00098790    -0.36370
N559        N  0.92161298  0.28722822  0.99508757    -0.28550
C560        C  0.88888080  0.26757601  0.99317801    -0.03790
C561        C  0.84185669  0.27746394  0.99833965     0.04820
C562        C  0.84870747  0.30378194  0.00326123     0.02910
H563        H  0.89863603  0.24753749  0.98859357     0.08020
H564        H  0.82038224  0.31808924  0.00820006     0.06850
N565        N  0.07307469  0.28664007  0.74821958    -0.27530
N566        N  0.09691062  0.30897340  0.74487604    -0.35390
C567        C  0.14588742  0.30419757  0.74376511     0.00810
C568        C  0.15328842  0.27759339  0.74691000     0.06830
C569        C  0.10629857  0.26706775  0.74967520    -0.06270
H570        H  0.17408125  0.31905652  0.74148827     0.07500
H571        H  0.09697813  0.24672884  0.75301319     0.08700
Cu572      Cu  0.06223459  0.34505022  0.74461869     0.44170
Cu573      Cu  0.99661460  0.28393018  0.75116944     0.41990
Cu574      Cu  0.92959504  0.34527502  0.75610995     0.43880
N575        N  0.02032621  0.37873494  0.74859573    -0.34920
N576        N  0.97177578  0.37889714  0.75271193    -0.29170
C577        C  0.95595646  0.40375376  0.75423664    -0.05270
C578        C  0.99661711  0.41992250  0.75113526     0.06940
C579        C  0.03678139  0.40344143  0.74765525     0.00740
H580        H  0.91776909  0.40958461  0.75752219     0.08390
H581        H  0.07514530  0.40897398  0.74454889     0.07470
N582        N  0.89577148  0.30904796  0.75595791    -0.36370
N583        N  0.92007523  0.28675367  0.75342990    -0.28550
C584        C  0.88722130  0.26714571  0.75199669    -0.03790
C585        C  0.84000401  0.27759330  0.75388706     0.04820
C586        C  0.84684247  0.30418843  0.75650185     0.02910
H587        H  0.89696463  0.24683842  0.74922659     0.08020
H588        H  0.81831548  0.31898597  0.75804609     0.06850
O589        O  0.04024814  0.49921628  0.54584423    -0.73190
O590        O  0.04063335  0.49942077  0.95541194    -0.74170
O591        O  0.04194091  0.53873307  0.99978158    -0.62790
O592        O  0.03926675  0.46048866  0.00138162    -0.71200
O593        O  0.95700871  0.46138530  0.00276204    -0.70750
O594        O  0.95966860  0.53959532  0.99868595    -0.62000
O595        O  0.95829741  0.49936592  0.95546517    -0.74510
O596        O  0.95860062  0.50221432  0.54573859    -0.73290
Cu597      Cu  0.04340412  0.49946135  0.00059597     1.04560
Cu598      Cu  0.95552244  0.50064146  0.00064415     1.04330
C599        C  0.99937192  0.50084684  0.56027093     0.93010
C600        C  0.99947131  0.49926175  0.94120692     0.92150
C601        C  0.00118001  0.55147308  0.99885399     0.84300
C602        C  0.99776863  0.44862713  0.00262909     0.90570
O603        O  0.04002873  0.49917963  0.70640677    -0.73190
O604        O  0.04050498  0.49920140  0.79680607    -0.74170
O605        O  0.03894826  0.46033836  0.75188572    -0.62790
O606        O  0.04179437  0.53861427  0.75134668    -0.71200
O607        O  0.95951864  0.53949219  0.75240887    -0.70750
O608        O  0.95666857  0.46132560  0.75115966    -0.62000
O609        O  0.95816273  0.49943060  0.79696570    -0.74510
O610        O  0.95836859  0.50199541  0.70656841    -0.73290
Cu611      Cu  0.04320159  0.49932545  0.75160890     1.04560
Cu612      Cu  0.95531176  0.50056216  0.75177633     1.04330
C613        C  0.99914849  0.50074251  0.69199778     0.93010
C614        C  0.99938074  0.49919732  0.81111606     0.92150
C615        C  0.99737511  0.44852561  0.75142953     0.84300
C616        C  0.00103516  0.55136026  0.75196755     0.90570
C617        C  0.97476152  0.47922897  0.89238084    -0.02090
C618        C  0.99951791  0.49914856  0.90795438     0.07590
C619        C  0.02422352  0.51905965  0.89168812    -0.02200
C620        C  0.02422535  0.51903652  0.85993601    -0.02210
C621        C  0.99950843  0.49910933  0.84436225     0.07720
C622        C  0.97475180  0.47921254  0.86061339    -0.02400
Br623      Br  0.94286008  0.45118173  0.83941196    -0.00950
Br624      Br  0.94290893  0.45120329  0.91451377    -0.01020
Br625      Br  0.05588821  0.54714740  0.83781887    -0.00980
Br626      Br  0.05585548  0.54721964  0.91282319    -0.00970
C627        C  0.95937958  0.48965506  0.61037042    -0.02090
C628        C  0.99917152  0.50102299  0.59396474     0.07590
C629        C  0.03879883  0.51245444  0.61003231    -0.02200
C630        C  0.03874973  0.51242182  0.64187412    -0.02210
C631        C  0.99902155  0.50099142  0.65828634     0.07720
C632        C  0.95927580  0.48966531  0.64220230    -0.02400
Br633      Br  0.90493605  0.47255920  0.66314442    -0.00950
Br634      Br  0.90530075  0.47243275  0.58989981    -0.01020
Br635      Br  0.09288141  0.52955452  0.66236337    -0.00980
Br636      Br  0.09288296  0.52968419  0.58899945    -0.00970
C637        C  0.25855776  0.77112020  0.76993207    -0.02090
C638        C  0.29582289  0.76378722  0.74925829     0.07590
C639        C  0.28722194  0.74296843  0.72941343    -0.02200
C640        C  0.24174194  0.72958573  0.73022762    -0.02210
C641        C  0.20453119  0.73687248  0.75095441     0.07720
C642        C  0.21307162  0.75773749  0.77074336    -0.02400
Br643      Br  0.16360720  0.76727193  0.80023712    -0.00950
Br644      Br  0.27048974  0.79853174  0.79854105    -0.01020
Br645      Br  0.22974453  0.70221219  0.70157711    -0.00980
Br646      Br  0.33661828  0.73348100  0.69985816    -0.00970
C647        C  0.73698568  0.76802832  0.72755201    -0.02090
C648        C  0.70457217  0.76310421  0.75200772     0.07590
C649        C  0.71776902  0.74458073  0.77444171    -0.02200
C650        C  0.76324005  0.73117005  0.77254652    -0.02210
C651        C  0.79571423  0.73613768  0.74812507     0.07720
C652        C  0.78244620  0.75461087  0.72564749    -0.02400
Br653      Br  0.82538931  0.76072902  0.69135328    -0.00950
Br654      Br  0.71818327  0.79213192  0.69564198    -0.01020
Br655      Br  0.78198106  0.70706017  0.80446276    -0.00980
Br656      Br  0.67473579  0.73840734  0.80868345    -0.00970
C657        C  0.26016110  0.77137803  0.98010128    -0.02090
C658        C  0.29645131  0.76364807  0.00140025     0.07590
C659        C  0.28702048  0.74238715  0.52112908    -0.02200
C660        C  0.24165446  0.72897630  0.51961028    -0.02210
C661        C  0.20540248  0.73667565  0.99827622     0.07720
C662        C  0.21479155  0.75796714  0.97858395    -0.02400
Br663      Br  0.16667658  0.76808454  0.94829259    -0.00950
Br664      Br  0.27332526  0.79939250  0.95160970    -0.01020
Br665      Br  0.22843880  0.70099203  0.54813389    -0.00980
Br666      Br  0.33508731  0.73230564  0.55146278    -0.00970
C667        C  0.76222866  0.73030133  0.97886444    -0.02090
C668        C  0.79653073  0.73629847  0.00180514     0.07590
C669        C  0.78503708  0.75586426  0.52282292    -0.02200
C670        C  0.73955859  0.76931245  0.52096240    -0.02210
C671        C  0.70529648  0.76334245  0.99799574     0.07720
C672        C  0.71674133  0.74374250  0.97701394    -0.02400
Br673      Br  0.67130057  0.73607976  0.94463987    -0.00950
Br674      Br  0.77837517  0.70473001  0.94870091    -0.01020
Br675      Br  0.72336308  0.79488242  0.55111769    -0.00980
Br676      Br  0.83040643  0.76348002  0.55524730    -0.00970
C677        C  0.75776229  0.27008726  0.72923561    -0.02090
C678        C  0.79238565  0.26346356  0.75198682     0.07590
C679        C  0.78145624  0.24324965  0.77285679    -0.02200
C680        C  0.73613394  0.22982972  0.77109108    -0.02210
C681        C  0.70148401  0.23647260  0.74835882     0.07720
C682        C  0.71244387  0.25666488  0.72746610    -0.02400
Br683      Br  0.66655847  0.26519963  0.69532882    -0.00950
Br684      Br  0.77326143  0.29655319  0.69924563    -0.01020
Br685      Br  0.72067669  0.20334581  0.80106790    -0.00980
Br686      Br  0.82739033  0.23467979  0.80495818    -0.00970
C687        C  0.28245048  0.25691955  0.77182542    -0.02090
C688        C  0.29262582  0.23653455  0.75161153     0.07590
C689        C  0.25698427  0.22973989  0.72976697    -0.02200
C690        C  0.21143913  0.24315775  0.72824894    -0.02210
C691        C  0.20123506  0.26352119  0.74848689     0.07720
C692        C  0.23690374  0.27033608  0.77030976    -0.02400
Br693      Br  0.22263227  0.29704764  0.79947773    -0.00950
Br694      Br  0.32973581  0.26573527  0.80278153    -0.01020
Br695      Br  0.16418872  0.23437208  0.69726389    -0.00980
Br696      Br  0.27130107  0.20304659  0.70058491    -0.00970
C697        C  0.74222524  0.22823865  0.51958585    -0.02090
C698        C  0.70290710  0.23623040  0.00055209     0.07590
C699        C  0.70951167  0.25766619  0.98063248    -0.02200
C700        C  0.75504463  0.27100961  0.97977378    -0.02210
C701        C  0.79432148  0.26306657  0.99886699     0.07720
C702        C  0.78775161  0.24159725  0.51874797    -0.02400
Br703      Br  0.84003568  0.23118037  0.54618688    -0.00950
Br704      Br  0.73314899  0.19983859  0.54815922    -0.01020
Br705      Br  0.76417775  0.29932073  0.95108384    -0.00980
Br706      Br  0.65722744  0.26807032  0.95318775    -0.01010
C707        C  0.20973964  0.24274673  0.51955996    -0.02090
C708        C  0.20276030  0.26368872  0.99897223     0.07590
C709        C  0.24188482  0.27125285  0.97957717    -0.02200
C710        C  0.28759784  0.25795156  0.98071479    -0.02210
C711        C  0.29452215  0.23696439  0.00124579     0.07720
C712        C  0.25544514  0.22944379  0.52069175    -0.02400
Br713      Br  0.26509704  0.20176009  0.55015205    -0.00950
Br714      Br  0.15773565  0.23300197  0.54750593    -0.01020
Br715      Br  0.33966743  0.26774115  0.95283342    -0.00980
Br716      Br  0.23228778  0.29896124  0.95014437    -0.00970
C717        C  0.49577799  0.02299197  0.85759470    -0.02090
C718        C  0.49815947  0.99925429  0.84201104     0.07590
C719        C  0.50053750  0.97546870  0.85823738    -0.02200
C720        C  0.50060617  0.97543071  0.89005349    -0.02210
C721        C  0.49828448  0.99917841  0.90562476     0.07720
C722        C  0.49584030  0.02295367  0.88939150    -0.02400
Br723      Br  0.49296367  0.05543354  0.91083212    -0.00950
Br724      Br  0.49277391  0.05552405  0.83527082    -0.01020
Br725      Br  0.50371767  0.94293068  0.91242840    -0.00980
Br726      Br  0.50355642  0.94301910  0.83675541    -0.00970
C727        C  0.53004808  0.98295126  0.60815879    -0.02090
C728        C  0.50035389  0.00092212  0.59177948     0.07590
C729        C  0.47060577  0.01891993  0.60757560    -0.02200
C730        C  0.47043556  0.01889345  0.63942098    -0.02210
C731        C  0.50000655  0.00086573  0.65579768     0.07720
C732        C  0.52986101  0.98291573  0.63999975    -0.02400
Br733      Br  0.56849600  0.95706319  0.66182307    -0.00950
Br734      Br  0.56898805  0.95717809  0.58715948    -0.01020
Br735      Br  0.43149648  0.04464618  0.66044856    -0.00980
Br736      Br  0.43188321  0.04470764  0.58572243    -0.00970
loop_ 
_geom_bond_atom_site_label_1 
_geom_bond_atom_site_label_2 
_geom_bond_distance 
_geom_bond_site_symmetry_2 
_ccdc_geom_bond_type 
O1           C11   1.278       .  A
O1         Cu377   2.011   1_544  S
O2           C12   1.277       .  A
O2           Cu9   2.013       .  S
O3          C381   1.277       .  A
O3           Cu9   2.008       .  S
O4          C382   1.278       .  A
O4         Cu377   2.010   1_545  S
O5          C382   1.277       .  A
O5          Cu10   2.007       .  S
O6          C381   1.277       .  A
O6         Cu378   2.008   1_565  S
O7           C12   1.277       .  A
O7         Cu378   2.011   1_565  S
O8           C11   1.278       .  A
O8          Cu10   2.014   1_554  S
Cu9         O369   2.011   1_565  S
Cu9         O372   2.010   1_565  S
Cu9        Cu378   2.376   1_565  S
Cu10        O374   2.008   1_545  S
Cu10        O375   2.011   1_545  S
Cu10       Cu377   2.376   1_545  S
C11         C360   1.484       .  S
C12         C353   1.472       .  S
C13         O371   1.277       .  A
C13         O374   1.277   1_554  A
C13         C458   1.467       .  S
C14         O372   1.278       .  A
C14         O373   1.277       .  A
C14          C42   1.468       .  S
O15          C25   1.278       .  A
O15         Cu23   2.011       .  S
O16          C26   1.277       .  A
O16         Cu23   2.012   1_565  S
O17          C27   1.277       .  A
O17         Cu23   2.009   1_565  S
O18          C28   1.277       .  A
O18         Cu23   2.007       .  S
O19          C28   1.277       .  A
O19         Cu24   2.009   1_545  S
O20          C27   1.277       .  A
O20         Cu24   2.007       .  S
O21          C26   1.277       .  A
O21         Cu24   2.013       .  S
O22          C25   1.278       .  A
O22         Cu24   2.013   1_545  S
Cu23        Cu24   2.376   1_545  S
C25         C363   1.484       .  S
C26         C350   1.473       .  S
C27         C114   1.467       .  S
C28          C66   1.467       .  S
N29          N30   1.322       .  A
N29          C33   1.346       .  A
N29         Cu37   2.077       .  S
N30          C31   1.344       .  A
N30         Cu36   2.071       .  S
C31          C32   1.383       .  A
C31          H34   1.082       .  S
C32         C343   1.481       .  S
C32          C33   1.385       .  A
C33          H35   1.082       .  S
Cu36         N39   2.071       .  S
Cu37         N47   2.077       .  S
Cu38         N40   2.072       .  S
Cu38         N46   2.072       .  S
N39          N40   1.322       .  A
N39          C43   1.345       .  A
N40          C41   1.345       .  A
C41          C42   1.383       .  A
C41          H44   1.082       .  S
C42          C43   1.382       .  A
C43          H45   1.082       .  S
N46          N47   1.322       .  A
N46          C50   1.344       .  A
N47          C48   1.345       .  A
C48          C49   1.385       .  A
C48          H51   1.082       .  S
C49         C330   1.482       .  S
C49          C50   1.383       .  A
C50          H52   1.082       .  S
N53          N54   1.322       .  A
N53          C57   1.345       .  A
N53         Cu61   2.072       .  S
N54          C55   1.344       .  A
N54         Cu60   2.071       .  S
C55          C56   1.383       .  A
C55          H58   1.082       .  S
C56         C313   1.480       .  S
C56          C57   1.384       .  A
C57          H59   1.082       .  S
Cu60         N63   2.071       .  S
Cu61         N71   2.072       .  S
Cu62         N64   2.072       .  S
Cu62         N70   2.072       .  S
N63          N64   1.322       .  A
N63          C67   1.344       .  A
N64          C65   1.345       .  A
C65          C66   1.383       .  A
C65          H68   1.082       .  S
C66          C67   1.382       .  A
C67          H69   1.082       .  S
N70          N71   1.322       .  A
N70          C74   1.344       .  A
N71          C72   1.345       .  A
C72          C73   1.384       .  A
C72          H75   1.082       .  S
C73         C320   1.481       .  S
C73          C74   1.384       .  A
C74          H76   1.082       .  S
N77          N78   1.322       .  A
N77          C81   1.345       .  A
N77         Cu85   2.072       .  S
N78          C79   1.344       .  A
N78         Cu84   2.071       .  S
C79          C80   1.383       .  A
C79          H82   1.082       .  S
C80         C303   1.480       .  S
C80          C81   1.384       .  A
C81          H83   1.082       .  S
Cu84         N87   2.072       .  S
Cu85         N95   2.072       .  S
Cu86         N88   2.072       .  S
Cu86         N94   2.072       .  S
N87          N88   1.322       .  A
N87          C91   1.345       .  A
N88          C89   1.345       .  A
C89          C90   1.382       .  A
C89          H92   1.082       .  S
C90         C381   1.467       .  S
C90          C91   1.382       .  A
C91          H93   1.082       .  S
N94          N95   1.322       .  A
N94          C98   1.344       .  A
N95          C96   1.345       .  A
C96          C97   1.384       .  A
C96          H99   1.082       .  S
C97         C290   1.481       .  S
C97          C98   1.384       .  A
C98         H100   1.082       .  S
N101        N102   1.322       .  A
N101        C105   1.345       .  A
N101       Cu109   2.073       .  S
N102        C103   1.344       .  A
N102       Cu108   2.071       .  S
C103        C104   1.383       .  A
C103        H106   1.082       .  S
C104        C280   1.479       .  S
C104        C105   1.383       .  A
C105        H107   1.082       .  S
Cu108       N111   2.071       .  S
Cu109       N119   2.073       .  S
Cu110       N112   2.072       .  S
Cu110       N118   2.072       .  S
N111        N112   1.322       .  A
N111        C115   1.345       .  A
N112        C113   1.345       .  A
C113        C114   1.382       .  A
C113        H116   1.082       .  S
C114        C115   1.382       .  A
C115        H117   1.082       .  S
N118        N119   1.322       .  A
N118        C122   1.344       .  A
N119        C120   1.345       .  A
C120        C121   1.384       .  A
C120        H123   1.082       .  S
C121        C270   1.481       .  S
C121        C122   1.384       .  A
C122        H124   1.082       .  S
N125        N126   1.322       .  A
N125        C129   1.345       .  A
N125       Cu133   2.072   1_655  S
N126        C127   1.344       .  A
N126       Cu132   2.070       .  S
C127        C128   1.383       .  A
C127        H130   1.082       .  S
C128        C300   1.480       .  S
C128        C129   1.384       .  A
C129        H131   1.082       .  S
Cu132       N135   2.071       .  S
Cu133       N143   2.072       .  S
Cu134       N136   2.073       .  S
Cu134       N142   2.073       .  S
N135        N136   1.322   1_655  A
N135        C139   1.344       .  A
N136        C137   1.346       .  A
C137        C138   1.383       .  A
C137        H140   1.082       .  S
C138        C233   1.467       .  S
C138        C139   1.382   1_455  A
C139        H141   1.082       .  S
N142        N143   1.322       .  A
N142        C146   1.344       .  A
N143        C144   1.345       .  A
C144        C145   1.384       .  A
C144        H147   1.082       .  S
C145        C293   1.481       .  S
C145        C146   1.384       .  A
C146        H148   1.082       .  S
N149        N150   1.322       .  A
N149        C153   1.345       .  A
N149       Cu157   2.073   1_655  S
N150        C151   1.344       .  A
N150       Cu156   2.070       .  S
C151        C152   1.383       .  A
C151        H154   1.082       .  S
C152        C283   1.479       .  S
C152        C153   1.384       .  A
C153        H155   1.082       .  S
Cu156       N159   2.070       .  S
Cu157       N167   2.073       .  S
Cu158       N160   2.073       .  S
Cu158       N166   2.073       .  S
N159        N160   1.322   1_655  A
N159        C163   1.344       .  A
N160        C161   1.346       .  A
C161        C162   1.383       .  A
C161        H164   1.082       .  S
C162        C248   1.467       .  S
C162        C163   1.382   1_455  A
C163        H165   1.082       .  S
N166        N167   1.322       .  A
N166        C170   1.344       .  A
N167        C168   1.345       .  A
C168        C169   1.384       .  A
C168        H171   1.082       .  S
C169        C273   1.481       .  S
C169        C170   1.384       .  A
C170        H172   1.082       .  S
N173        N174   1.322       .  A
N173        C177   1.346       .  A
N173       Cu181   2.077   1_455  S
N174        C175   1.344       .  A
N174       Cu180   2.070       .  S
C175        C176   1.383       .  A
C175        H178   1.082       .  S
C176        C340   1.481       .  S
C176        C177   1.385       .  A
C177        H179   1.082       .  S
Cu180       N183   2.070       .  S
Cu181       N191   2.077       .  S
Cu182       N184   2.072       .  S
Cu182       N190   2.072       .  S
N183        N184   1.322   1_455  A
N183        C187   1.344       .  A
N184        C185   1.346       .  A
C185        C186   1.383       .  A
C185        H188   1.082       .  S
C186        C234   1.468       .  S
C186        C187   1.382   1_655  A
C187        H189   1.082       .  S
N190        N191   1.323       .  A
N190        C194   1.344       .  A
N191        C192   1.346       .  A
C192        C193   1.385       .  A
C192        H195   1.082       .  S
C193        C333   1.482       .  S
C193        C194   1.383       .  A
C194        H196   1.082       .  S
N197        N198   1.322       .  A
N197        C201   1.345       .  A
N197       Cu205   2.072   1_455  S
N198        C199   1.344       .  A
N198       Cu204   2.071       .  S
C199        C200   1.384       .  A
C199        H202   1.082       .  S
C200        C323   1.481       .  S
C200        C201   1.384       .  A
C201        H203   1.082       .  S
Cu204       N207   2.071       .  S
Cu205       N215   2.072       .  S
Cu206       N208   2.073       .  S
Cu206       N214   2.072       .  S
N207        N208   1.322   1_455  A
N207        C211   1.344       .  A
N208        C209   1.346       .  A
C209        C210   1.383       .  A
C209        H212   1.082       .  S
C210        C247   1.467       .  S
C210        C211   1.382   1_655  A
C211        H213   1.082       .  S
N214        N215   1.322       .  A
N214        C218   1.344       .  A
N215        C216   1.345       .  A
C216        C217   1.383       .  A
C216        H219   1.082       .  S
C217        C310   1.480       .  S
C217        C218   1.383       .  A
C218        H220   1.082       .  S
O221        C231   1.277   1_455  A
O221       Cu597   2.005       .  S
O222        C232   1.277   1_455  A
O222       Cu229   2.002       .  S
O223        C233   1.278       .  A
O223       Cu229   2.014       .  S
O224        C234   1.277   1_455  A
O224       Cu229   2.002       .  S
O225        C234   1.278       .  A
O225       Cu230   2.015       .  S
O226        C233   1.277   1_655  A
O226       Cu230   2.002       .  S
O227        C232   1.277       .  A
O227       Cu230   2.003       .  S
O228        C231   1.276       .  A
O228       Cu598   2.001       .  S
Cu229       O589   2.005       .  S
Cu229      Cu230   2.372   1_455  S
Cu230       O596   2.001       .  S
C231        C260   1.492       .  S
C232        C250   1.472       .  S
O235        C245   1.277   1_455  A
O235       Cu243   2.003       .  S
O236        C246   1.277   1_455  A
O236       Cu243   2.002       .  S
O237        C247   1.277   1_455  A
O237       Cu243   2.003       .  S
O238        C248   1.278       .  A
O238       Cu243   2.015       .  S
O239        C248   1.276   1_655  A
O239       Cu244   2.001       .  S
O240        C247   1.278       .  A
O240       Cu244   2.013       .  S
O241        C246   1.277       .  A
O241       Cu244   2.002       .  S
O242        C245   1.277       .  A
O242       Cu244   2.003       .  S
Cu243      Cu244   2.372   1_455  S
C245        C263   1.492       .  S
C246        C253   1.472       .  S
C249        C250   1.410       .  A
C249        C254   1.406       .  A
C249       Br256   1.932       .  S
C250        C251   1.410   1_655  A
C251        C252   1.406       .  A
C251       Br258   1.933       .  S
C252        C253   1.410   1_455  A
C252       Br257   1.933       .  S
C253        C254   1.410       .  A
C254       Br255   1.932       .  S
C259        C260   1.418       .  A
C259        C264   1.409       .  A
C259       Br266   1.940       .  S
C260        C261   1.417   1_655  A
C261        C262   1.410       .  A
C261       Br268   1.939       .  S
C262        C263   1.418   1_455  A
C262       Br267   1.939       .  S
C263        C264   1.418       .  A
C264       Br265   1.939       .  S
C269        C270   1.412       .  A
C269        C274   1.408       .  A
C269       Br276   1.933       .  S
C270        C271   1.412       .  A
C271        C272   1.408       .  A
C271       Br278   1.932       .  S
C272        C273   1.412       .  A
C272       Br277   1.933       .  S
C273        C274   1.412       .  A
C274       Br275   1.932       .  S
C279        C280   1.412       .  A
C279        C284   1.408       .  A
C279       Br286   1.932       .  S
C280        C281   1.410       .  A
C281        C282   1.408       .  A
C281       Br288   1.932       .  S
C282        C283   1.412       .  A
C282       Br287   1.932       .  S
C283        C284   1.411       .  A
C284       Br285   1.932       .  S
C289        C290   1.412       .  A
C289        C294   1.408       .  A
C289       Br296   1.933       .  S
C290        C659   1.411       .  A
C291        C292   1.408       .  A
C291        C658   1.411       .  A
C291       Br298   1.932       .  S
C292        C661   1.412   1_554  A
C292       Br297   1.933       .  S
C293        C294   1.412       .  A
C293        C660   1.412       .  A
C294       Br295   1.932       .  S
C299        C300   1.412       .  A
C299        C304   1.408       .  A
C299       Br306   1.933       .  S
C300        C669   1.411       .  A
C301        C302   1.408       .  A
C301        C668   1.411       .  A
C301       Br308   1.932       .  S
C302        C671   1.412   1_554  A
C302       Br307   1.933       .  S
C303        C304   1.411       .  A
C303        C670   1.412       .  A
C304       Br305   1.932       .  S
C309        C310   1.412       .  A
C309        C314   1.408       .  A
C309       Br316   1.932       .  S
C310        C311   1.411       .  A
C311        C312   1.408       .  A
C311       Br318   1.932       .  S
C312        C313   1.412       .  A
C312       Br317   1.932       .  S
C313        C314   1.411       .  A
C314       Br315   1.932       .  S
C319        C320   1.411       .  A
C319        C324   1.408       .  A
C319       Br326   1.932       .  S
C320        C321   1.412       .  A
C321        C322   1.408       .  A
C321       Br328   1.933       .  S
C322        C323   1.411       .  A
C322       Br327   1.932       .  S
C323        C324   1.412       .  A
C324       Br325   1.933       .  S
C329        C334   1.408       .  A
C329        C698   1.412       .  A
C329       Br336   1.932       .  S
C330        C331   1.412       .  A
C330        C697   1.412       .  A
C331        C332   1.408       .  A
C331       Br338   1.932       .  S
C332        C333   1.412       .  A
C332       Br337   1.932       .  S
C333        C702   1.412       .  A
C334        C701   1.412   1_554  A
C334       Br335   1.932       .  S
C339        C344   1.408       .  A
C339        C708   1.412   1_554  A
C339       Br346   1.932       .  S
C340        C341   1.412       .  A
C340        C707   1.412       .  A
C341        C342   1.408       .  A
C341       Br348   1.932       .  S
C342        C343   1.412       .  A
C342       Br347   1.932       .  S
C343        C712   1.412       .  A
C344        C711   1.412       .  A
C344       Br345   1.932       .  S
C349        C350   1.409   1_545  A
C349        C354   1.408       .  A
C349       Br356   1.929       .  S
C350        C351   1.409       .  A
C351        C352   1.409       .  A
C351       Br358   1.929       .  S
C352        C353   1.409       .  A
C352       Br357   1.929       .  S
C353        C354   1.409   1_565  A
C354       Br355   1.930       .  S
C359        C360   1.413   1_565  A
C359        C364   1.410       .  A
C359       Br366   1.933       .  S
C360        C361   1.413       .  A
C361        C362   1.410       .  A
C361       Br368   1.933       .  S
C362        C363   1.413       .  A
C362       Br367   1.933       .  S
C363        C364   1.413   1_545  A
C364       Br365   1.933       .  S
O369        C379   1.278       .  A
O370        C380   1.277       .  A
O370       Cu377   2.013       .  S
O371       Cu377   2.008   1_554  S
O373       Cu378   2.007       .  S
O375        C380   1.277       .  A
O376        C379   1.278       .  A
O376       Cu378   2.014       .  S
C379        C728   1.484       .  S
C380        C721   1.472       .  S
C382        C410   1.468       .  S
O383        C393   1.278       .  A
O383       Cu391   2.011       .  S
O384        C394   1.277       .  A
O384       Cu391   2.012   1_565  S
O385        C395   1.277       .  A
O385       Cu391   2.009   1_565  S
O386        C396   1.277       .  A
O386       Cu391   2.007       .  S
O387        C396   1.277       .  A
O387       Cu392   2.009   1_545  S
O388        C395   1.277       .  A
O388       Cu392   2.007       .  S
O389        C394   1.277       .  A
O389       Cu392   2.013       .  S
O390        C393   1.278       .  A
O390       Cu392   2.013   1_545  S
Cu391      Cu392   2.376   1_545  S
C393        C731   1.484       .  S
C394        C718   1.473       .  S
C395        C482   1.467       .  S
C396        C434   1.467       .  S
N397        N398   1.322   1_554  A
N397        C401   1.346       .  A
N397       Cu405   2.077       .  S
N398        C399   1.344       .  A
N398       Cu404   2.071       .  S
C399        C400   1.383   1_556  A
C399        H402   1.082       .  S
C400        C711   1.481       .  S
C400        C401   1.385       .  A
C401        H403   1.082       .  S
Cu404       N407   2.071       .  S
Cu405       N415   2.077       .  S
Cu406       N408   2.072       .  S
Cu406       N414   2.072       .  S
N407        N408   1.322       .  A
N407        C411   1.345       .  A
N408        C409   1.345       .  A
C409        C410   1.383       .  A
C409        H412   1.082       .  S
C410        C411   1.382       .  A
C411        H413   1.082       .  S
N414        N415   1.322   1_556  A
N414        C418   1.344       .  A
N415        C416   1.345       .  A
C416        C417   1.385       .  A
C416        H419   1.082       .  S
C417        C698   1.482       .  S
C417        C418   1.383   1_554  A
C418        H420   1.082       .  S
N421        N422   1.322       .  A
N421        C425   1.345       .  A
N421       Cu429   2.072       .  S
N422        C423   1.344       .  A
N422       Cu428   2.071       .  S
C423        C424   1.383       .  A
C423        H426   1.082       .  S
C424        C681   1.480       .  S
C424        C425   1.384       .  A
C425        H427   1.082       .  S
Cu428       N431   2.071       .  S
Cu429       N439   2.072       .  S
Cu430       N432   2.072       .  S
Cu430       N438   2.072       .  S
N431        N432   1.322       .  A
N431        C435   1.344       .  A
N432        C433   1.345       .  A
C433        C434   1.383       .  A
C433        H436   1.082       .  S
C434        C435   1.382       .  A
C435        H437   1.082       .  S
N438        N439   1.322       .  A
N438        C442   1.344       .  A
N439        C440   1.345       .  A
C440        C441   1.384       .  A
C440        H443   1.082       .  S
C441        C688   1.481       .  S
C441        C442   1.384       .  A
C442        H444   1.082       .  S
N445        N446   1.322       .  A
N445        C449   1.345       .  A
N445       Cu453   2.072       .  S
N446        C447   1.344       .  A
N446       Cu452   2.071       .  S
C447        C448   1.383       .  A
C447        H450   1.082       .  S
C448        C671   1.480       .  S
C448        C449   1.384       .  A
C449        H451   1.082   1_556  S
Cu452       N455   2.072       .  S
Cu453       N463   2.072   1_556  S
Cu454       N456   2.072       .  S
Cu454       N462   2.072       .  S
N455        N456   1.322   1_556  A
N455        C459   1.345       .  A
N456        C457   1.345       .  A
C457        C458   1.382       .  A
C457        H460   1.082       .  S
C458        C459   1.382   1_554  A
C459        H461   1.082       .  S
N462        N463   1.322       .  A
N462        C466   1.344       .  A
N463        C464   1.345   1_554  A
C464        C465   1.384   1_556  A
C464        H467   1.082       .  S
C465        C658   1.481       .  S
C465        C466   1.384       .  A
C466        H468   1.082       .  S
N469        N470   1.322       .  A
N469        C473   1.345       .  A
N469       Cu477   2.073       .  S
N470        C471   1.344       .  A
N470       Cu476   2.071       .  S
C471        C472   1.383       .  A
C471        H474   1.082       .  S
C472        C648   1.479       .  S
C472        C473   1.383       .  A
C473        H475   1.082       .  S
Cu476       N479   2.071       .  S
Cu477       N487   2.073       .  S
Cu478       N480   2.072       .  S
Cu478       N486   2.072       .  S
N479        N480   1.322       .  A
N479        C483   1.345       .  A
N480        C481   1.345       .  A
C481        C482   1.382       .  A
C481        H484   1.082       .  S
C482        C483   1.382       .  A
C483        H485   1.082       .  S
N486        N487   1.322       .  A
N486        C490   1.344       .  A
N487        C488   1.345       .  A
C488        C489   1.384       .  A
C488        H491   1.082       .  S
C489        C638   1.481       .  S
C489        C490   1.384       .  A
C490        H492   1.082       .  S
N493        N494   1.322       .  A
N493        C497   1.345       .  A
N493       Cu501   2.072   1_655  S
N494        C495   1.344       .  A
N494       Cu500   2.070       .  S
C495        C496   1.383       .  A
C495        H498   1.082       .  S
C496        C668   1.480       .  S
C496        C497   1.384       .  A
C497        H499   1.082   1_554  S
Cu500       N503   2.071       .  S
Cu501       N511   2.072   1_554  S
Cu502       N504   2.073       .  S
Cu502       N510   2.073       .  S
N503        N504   1.322   1_654  A
N503        C507   1.344       .  A
N504        C505   1.346       .  A
C505        C506   1.383       .  A
C505        H508   1.082       .  S
C506        C601   1.467       .  S
C506        C507   1.382   1_456  A
C507        H509   1.082       .  S
N510        N511   1.322       .  A
N510        C514   1.344       .  A
N511        C512   1.345       .  A
C512        C513   1.384       .  A
C512        H515   1.082   1_556  S
C513        C661   1.481       .  S
C513        C514   1.384       .  A
C514        H516   1.082       .  S
N517        N518   1.322       .  A
N517        C521   1.345       .  A
N517       Cu525   2.073   1_655  S
N518        C519   1.344       .  A
N518       Cu524   2.070       .  S
C519        C520   1.383       .  A
C519        H522   1.082       .  S
C520        C651   1.479       .  S
C520        C521   1.384       .  A
C521        H523   1.082       .  S
Cu524       N527   2.070       .  S
Cu525       N535   2.073       .  S
Cu526       N528   2.073       .  S
Cu526       N534   2.073       .  S
N527        N528   1.322   1_655  A
N527        C531   1.344       .  A
N528        C529   1.346       .  A
C529        C530   1.383       .  A
C529        H532   1.082       .  S
C530        C616   1.467       .  S
C530        C531   1.382   1_455  A
C531        H533   1.082       .  S
N534        N535   1.322       .  A
N534        C538   1.344       .  A
N535        C536   1.345       .  A
C536        C537   1.384       .  A
C536        H539   1.082       .  S
C537        C641   1.481       .  S
C537        C538   1.384       .  A
C538        H540   1.082       .  S
N541        N542   1.322   1_556  A
N541        C545   1.346       .  A
N541       Cu549   2.077   1_455  S
N542        C543   1.344       .  A
N542       Cu548   2.070       .  S
C543        C544   1.383   1_554  A
C543        H546   1.082       .  S
C544        C708   1.481       .  S
C544        C545   1.385       .  A
C545        H547   1.082       .  S
Cu548       N551   2.070       .  S
Cu549       N559   2.077       .  S
Cu550       N552   2.072       .  S
Cu550       N558   2.072       .  S
N551        N552   1.322   1_455  A
N551        C555   1.344       .  A
N552        C553   1.346       .  A
C553        C554   1.383       .  A
C553        H556   1.082       .  S
C554        C602   1.468       .  S
C554        C555   1.382   1_655  A
C555        H557   1.082       .  S
N558        N559   1.323   1_554  A
N558        C562   1.344       .  A
N559        C560   1.346       .  A
C560        C561   1.385       .  A
C560        H563   1.082       .  S
C561        C701   1.482       .  S
C561        C562   1.383   1_556  A
C562        H564   1.082       .  S
N565        N566   1.322       .  A
N565        C569   1.345       .  A
N565       Cu573   2.072   1_455  S
N566        C567   1.344       .  A
N566       Cu572   2.071       .  S
C567        C568   1.384       .  A
C567        H570   1.082       .  S
C568        C691   1.481       .  S
C568        C569   1.384       .  A
C569        H571   1.082       .  S
Cu572       N575   2.071       .  S
Cu573       N583   2.072       .  S
Cu574       N576   2.073       .  S
Cu574       N582   2.072       .  S
N575        N576   1.322   1_455  A
N575        C579   1.344       .  A
N576        C577   1.346       .  A
C577        C578   1.383       .  A
C577        H580   1.082       .  S
C578        C615   1.467       .  S
C578        C579   1.382   1_655  A
C579        H581   1.082       .  S
N582        N583   1.322       .  A
N582        C586   1.344       .  A
N583        C584   1.345       .  A
C584        C585   1.383       .  A
C584        H587   1.082       .  S
C585        C678   1.480       .  S
C585        C586   1.383       .  A
C586        H588   1.082       .  S
O589        C599   1.277   1_455  A
O590        C600   1.277   1_455  A
O590       Cu597   2.002   1_556  S
O591        C601   1.278       .  A
O591       Cu597   2.014   1_556  S
O592        C602   1.277   1_455  A
O592       Cu597   2.002       .  S
O593        C602   1.278       .  A
O593       Cu598   2.015       .  S
O594        C601   1.277   1_655  A
O594       Cu598   2.002   1_556  S
O595        C600   1.277       .  A
O595       Cu598   2.003   1_556  S
O596        C599   1.276       .  A
Cu597      Cu598   2.372   1_455  S
C599        C628   1.492       .  S
C600        C618   1.472       .  S
O603        C613   1.277   1_455  A
O603       Cu611   2.003       .  S
O604        C614   1.277   1_455  A
O604       Cu611   2.002       .  S
O605        C615   1.277   1_455  A
O605       Cu611   2.003       .  S
O606        C616   1.278       .  A
O606       Cu611   2.015       .  S
O607        C616   1.276   1_655  A
O607       Cu612   2.001       .  S
O608        C615   1.278       .  A
O608       Cu612   2.013       .  S
O609        C614   1.277       .  A
O609       Cu612   2.002       .  S
O610        C613   1.277       .  A
O610       Cu612   2.003       .  S
Cu611      Cu612   2.372   1_455  S
C613        C631   1.492       .  S
C614        C621   1.472       .  S
C617        C618   1.410       .  A
C617        C622   1.406       .  A
C617       Br624   1.932       .  S
C618        C619   1.410   1_655  A
C619        C620   1.406       .  A
C619       Br626   1.933       .  S
C620        C621   1.410   1_455  A
C620       Br625   1.933       .  S
C621        C622   1.410       .  A
C622       Br623   1.932       .  S
C627        C628   1.418       .  A
C627        C632   1.409       .  A
C627       Br634   1.940       .  S
C628        C629   1.417   1_655  A
C629        C630   1.410       .  A
C629       Br636   1.939       .  S
C630        C631   1.418   1_455  A
C630       Br635   1.939       .  S
C631        C632   1.418       .  A
C632       Br633   1.939       .  S
C637        C638   1.412       .  A
C637        C642   1.408       .  A
C637       Br644   1.933       .  S
C638        C639   1.412       .  A
C639        C640   1.408       .  A
C639       Br646   1.932       .  S
C640        C641   1.412       .  A
C640       Br645   1.933       .  S
C641        C642   1.412       .  A
C642       Br643   1.932       .  S
C647        C648   1.412       .  A
C647        C652   1.408       .  A
C647       Br654   1.932       .  S
C648        C649   1.410       .  A
C649        C650   1.408       .  A
C649       Br656   1.932       .  S
C650        C651   1.412       .  A
C650       Br655   1.932       .  S
C651        C652   1.411       .  A
C652       Br653   1.932       .  S
C657        C658   1.412   1_556  A
C657        C662   1.408       .  A
C657       Br664   1.933       .  S
C659        C660   1.408       .  A
C659       Br666   1.932       .  S
C660       Br665   1.933       .  S
C661        C662   1.412       .  A
C662       Br663   1.932       .  S
C667        C668   1.412   1_556  A
C667        C672   1.408       .  A
C667       Br674   1.933       .  S
C669        C670   1.408       .  A
C669       Br676   1.932       .  S
C670       Br675   1.933       .  S
C671        C672   1.411       .  A
C672       Br673   1.932       .  S
C677        C678   1.412       .  A
C677        C682   1.408       .  A
C677       Br684   1.932       .  S
C678        C679   1.411       .  A
C679        C680   1.408       .  A
C679       Br686   1.932       .  S
C680        C681   1.412       .  A
C680       Br685   1.932       .  S
C681        C682   1.411       .  A
C682       Br683   1.932       .  S
C687        C688   1.411       .  A
C687        C692   1.408       .  A
C687       Br694   1.932       .  S
C688        C689   1.412       .  A
C689        C690   1.408       .  A
C689       Br696   1.933       .  S
C690        C691   1.411       .  A
C690       Br695   1.932       .  S
C691        C692   1.412       .  A
C692       Br693   1.933       .  S
C697        C702   1.408       .  A
C697       Br704   1.932       .  S
C698        C699   1.412   1_554  A
C699        C700   1.408       .  A
C699       Br706   1.932       .  S
C700        C701   1.412       .  A
C700       Br705   1.932       .  S
C702       Br703   1.932       .  S
C707        C712   1.408       .  A
C707       Br714   1.932       .  S
C708        C709   1.412       .  A
C709        C710   1.408       .  A
C709       Br716   1.932       .  S
C710        C711   1.412   1_556  A
C710       Br715   1.932       .  S
C712       Br713   1.932       .  S
C717        C718   1.409   1_545  A
C717        C722   1.408       .  A
C717       Br724   1.929       .  S
C718        C719   1.409       .  A
C719        C720   1.409       .  A
C719       Br726   1.929       .  S
C720        C721   1.409       .  A
C720       Br725   1.929       .  S
C721        C722   1.409   1_565  A
C722       Br723   1.930       .  S
C727        C728   1.413   1_565  A
C727        C732   1.410       .  A
C727       Br734   1.933       .  S
C728        C729   1.413       .  A
C729        C730   1.410       .  A
C729       Br736   1.933       .  S
C730        C731   1.413       .  A
C730       Br735   1.933       .  S
C731        C732   1.413   1_545  A
C732       Br733   1.933       .  S
