geometry optimzed in LAMMPS
_audit_creation_date              2020-12-01 
_audit_creation_method            'lammps2cif' 
_symmetry_space_group_name_H-M    'P1' 
_symmetry_Int_Tables_number       1 
_symmetry_cell_setting            triclinic 
loop_ 
_symmetry_equiv_pos_as_xyz 
  x,y,z 
_cell_length_a                    35.527809 
_cell_length_b                    35.36629522327027 
_cell_length_c                    44.17913712504584 
_cell_angle_alpha                 111.51328229361623 
_cell_angle_beta                  71.34290459066995 
_cell_angle_gamma                 128.95195591426602 
loop_ 
_atom_site_label 
_atom_site_type_symbol 
_atom_site_fract_x 
_atom_site_fract_y 
_atom_site_fract_z 
_atom_site_charge 
C1          C  0.35283461  0.13854665  0.98689196     0.82000
N2          N  0.30382494  0.11062505  0.98694182    -0.76300
C3          C  0.28285546  0.13186562  0.98657163     0.84500
N4          N  0.31096869  0.18055265  0.98537643    -0.76200
C5          C  0.35988083  0.20840722  0.98522067     0.84600
N6          N  0.38093696  0.18727954  0.98559919    -0.78000
C7          C  0.35382205  0.13902475  0.23662202     0.82000
N8          N  0.38175941  0.18779201  0.23546073    -0.76300
C9          C  0.36055543  0.20861212  0.23480241     0.84500
N10         N  0.31171648  0.18045410  0.23454330    -0.76200
C11         C  0.28378361  0.13174156  0.23560127     0.84600
N12         N  0.30487305  0.11078844  0.23626955    -0.78000
C13         C  0.14570868  0.33996080  0.37001922     0.82000
N14         N  0.11656067  0.29181209  0.37281423    -0.76300
C15         C  0.13658331  0.26991770  0.37365393     0.84500
N16         N  0.18558268  0.29643558  0.37231918    -0.76200
C17         C  0.21470171  0.34452886  0.36957598     0.84600
N18         N  0.19476130  0.36657225  0.36885125    -0.78000
C19         C  0.14545671  0.33957508  0.11928605     0.82000
N20         N  0.11627072  0.29142877  0.12210960    -0.76300
C21         C  0.13627509  0.26938414  0.12272476     0.84500
N22         N  0.18531757  0.29579239  0.12117589    -0.76200
C23         C  0.21451176  0.34388822  0.11838649     0.84600
N24         N  0.19454823  0.36603122  0.11786245    -0.78000
O25         O  0.07184335  0.41696618  0.36638263    -0.73500
O26         O  0.06880848  0.41938605  0.41949434    -0.52400
C27         C  0.08048278  0.40857133  0.38847272     0.80200
O28         O  0.09205031  0.13784397  0.40974843    -0.58100
O29         O  0.01980276  0.09981271  0.39164203    -0.51100
C30         C  0.06392415  0.13694706  0.39664228     0.72200
O31         O  0.14605057  0.08709473  0.45468992    -0.72700
O32         O  0.11136415  0.51347242  0.46798793    -0.53200
C33         C  0.14698875  0.05900356  0.46596503     0.78200
O34         O  0.01652232  0.46694594  0.32183459    -0.57800
O35         O  0.47812396  0.00543069  0.34352137    -0.50900
C36         C  0.49744832  0.48685496  0.31944966     0.74800
Zr37       Zr  0.03170453  0.45244327  0.36520185     2.54700
O38         O  0.10763703  0.48946009  0.32864498    -0.78400
O39         O  0.49381552  0.37285719  0.32566931    -0.91800
Zr40       Zr  0.08887387  0.08145404  0.43126782     2.64700
O41         O  0.16463889  0.11480617  0.39412403    -0.96700
O42         O  0.12297956  0.16041030  0.47167081    -0.78800
O43         O  0.07690004  0.50293238  0.41072174    -0.82200
O44         O  0.04597241  0.03200374  0.38484658    -2.16900
O45         O  0.35184825  0.38838266  0.39990877    -0.65500
O46         O  0.38649224  0.46156420  0.38645430    -0.50100
C47         C  0.35117237  0.41628498  0.38825471     0.73200
O48         O  0.47642754  0.00498329  0.03365074    -0.58500
O49         O  0.01815539  0.47016678  0.01237804    -0.50400
C50         C  0.49666650  0.48652042  0.03636143     0.75000
O51         O  0.42754800  0.06177418  0.48929082    -0.69900
O52         O  0.42833265  0.05696175  0.43608608    -0.48500
C53         C  0.41831281  0.06952064  0.46715835     0.76400
O54         O  0.40316259  0.34103207  0.45039959    -0.65200
O55         O  0.47675444  0.37745592  0.46580918    -0.52400
C56         C  0.43169179  0.34157591  0.46282235     0.74800
Zr57       Zr  0.40812296  0.39448100  0.42460482     2.77500
O58         O  0.32995435  0.35584742  0.45892597    -0.95900
O59         O  0.37990974  0.31735268  0.38260447    -0.76800
Zr60       Zr  0.46442473  0.02308796  0.49066545     2.70100
O61         O  0.38712416  0.48847722  0.02613145    -0.78000
O62         O  0.00577742  0.10354798  0.02984140    -0.97100
Zr63       Zr  0.02903689  0.45923673  0.45365499     2.21500
Zr64       Zr  0.46748383  0.01641347  0.40219339     2.11100
O65         O  0.41976927  0.47283007  0.44524716    -2.45800
O66         O  0.45092785  0.44413086  0.47109306    -0.77800
O67         O  0.45396159  0.43716397  0.38131677    -0.70000
O68         O  0.04290931  0.03893595  0.47460320    -2.30900
O69         O  0.48514156  0.40774488  0.40736827    -2.27200
O70         O  0.01170827  0.06818461  0.44862437    -0.71700
H71         H  0.06337995  0.04989073  0.36746901     0.80300
H72         H  0.06074901  0.05743910  0.99326345     0.81300
H73         H  0.38857388  0.46791033  0.45099934     0.83600
H74         H  0.48083097  0.37610501  0.40054625     0.81200
H75         H  0.10483736  0.15113717  0.49295338     0.44200
H76         H  0.01400746  0.12815287  0.01880455     0.43200
H77         H  0.37058915  0.45192485  0.01898523     0.42900
H78         H  0.32078007  0.37919010  0.46495847     0.40800
H79         H  0.38500013  0.32664293  0.36232854     0.43900
H80         H  0.48203433  0.34788589  0.33778343     0.38700
H81         H  0.13309281  0.01705563  0.34386689     0.44800
H82         H  0.15577880  0.11198437  0.37392590     0.41200
H83         H  0.30662208  0.32636722  0.44373404     0.46200
H84         H  0.02073554  0.37358731  0.31001913     0.44900
H85         H  0.18463738  0.15108971  0.40384423     0.45000
H86         H  0.47662722  0.10136398  0.04620842     0.45400
O87         O  0.07236036  0.41774993  0.11671043    -0.73500
O88         O  0.06881984  0.41972214  0.16981229    -0.52400
C89         C  0.08070832  0.40908885  0.13880531     0.80200
O90         O  0.09180306  0.13737836  0.15905368    -0.58100
O91         O  0.01934272  0.09961997  0.14136128    -0.51100
C92         C  0.06358923  0.13658870  0.14609161     0.72200
O93         O  0.14668080  0.08675108  0.20367824    -0.72700
O94         O  0.11129221  0.51418859  0.21837785    -0.53200
C95         C  0.14745733  0.05889235  0.21534607     0.78200
O96         O  0.01656399  0.46722521  0.07190145    -0.57800
O97         O  0.47796107  0.00527171  0.09342327    -0.50900
C98         C  0.49635258  0.48553430  0.06932897     0.74800
Zr99       Zr  0.03248484  0.45331637  0.11522519     2.54700
O100        O  0.10953128  0.49151965  0.07984729    -0.78400
O101        O  0.49505507  0.37344454  0.07470059    -0.91800
Zr102      Zr  0.08892877  0.08162152  0.18119997     2.64700
O103        O  0.16511638  0.11600654  0.14457524    -0.96700
O104        O  0.12166429  0.15985587  0.22231135    -0.78800
O105        O  0.07714327  0.50364137  0.16095714    -0.82200
O106        O  0.04596095  0.03211329  0.13479708    -2.16900
O107        O  0.35175337  0.38804651  0.14918314    -0.65500
O108        O  0.38612416  0.46155938  0.13633451    -0.50100
C109        C  0.35096379  0.41605504  0.13770575     0.73200
O110        O  0.47766528  0.00613067  0.28379588    -0.58500
O111        O  0.01832092  0.47018093  0.26233213    -0.50400
C112        C  0.49771445  0.48781895  0.28648260     0.75000
O113        O  0.42886297  0.06288512  0.23954384    -0.69900
O114        O  0.42975428  0.05820988  0.18634162    -0.48500
C115        C  0.41980098  0.07082256  0.21742751     0.76400
O116        O  0.40297072  0.34074805  0.20001750    -0.65200
O117        O  0.47624434  0.37770047  0.21619495    -0.52400
C118        C  0.43137749  0.34157331  0.21278766     0.74800
Zr119      Zr  0.40763084  0.39435628  0.17458305     2.77500
O120        O  0.32911569  0.35613383  0.20862138    -0.95900
O121        O  0.37951475  0.31721965  0.13262412    -0.76800
Zr122      Zr  0.46525409  0.02359404  0.24061187     2.70100
O123        O  0.38658771  0.48649131  0.27537822    -0.78000
O124        O  0.00423847  0.10325558  0.28064459    -0.97100
Zr125      Zr  0.02916500  0.45974261  0.20376518     2.21500
Zr126      Zr  0.46814976  0.01694593  0.15209575     2.11100
O127        O  0.41941872  0.47277325  0.19524467    -2.45800
O128        O  0.45059520  0.44393092  0.22106961    -0.77800
O129        O  0.45357762  0.43693440  0.13131944    -0.70000
O130        O  0.04318501  0.03931330  0.22466197    -2.30900
O131        O  0.48466439  0.40752304  0.15745201    -2.27200
O132        O  0.01186013  0.06845695  0.19852380    -0.71700
H133        H  0.06332257  0.04989270  0.11736460     0.80300
H134        H  0.06123210  0.05781460  0.24331185     0.81300
H135        H  0.38827200  0.46796224  0.20100194     0.83600
H136        H  0.48033799  0.37587325  0.15062185     0.81200
H137        H  0.10906140  0.14989993  0.24354695     0.44200
H138        H  0.01821214  0.12868669  0.26825828     0.43200
H139        H  0.37264534  0.45051819  0.26982651     0.42900
H140        H  0.31924906  0.37862102  0.21337792     0.40800
H141        H  0.39567134  0.32819078  0.11167156     0.43900
H142        H  0.48731557  0.34876160  0.08541997     0.38700
H143        H  0.13398491  0.01065131  0.09438547     0.44800
H144        H  0.15539189  0.10670494  0.12292581     0.41200
H145        H  0.30625894  0.32563910  0.19361778     0.46200
H146        H  0.02339450  0.37746276  0.05820605     0.44900
H147        H  0.18178378  0.15258508  0.15159502     0.45000
H148        H  0.47722551  0.10241823  0.29610568     0.45400
C149        C  0.08396044  0.18082940  0.13596503    -0.11500
C150        C  0.10576318  0.22020008  0.12875278    -0.13000
C151        C  0.26553701  0.37280588  0.12063935    -0.11500
C152        C  0.30628399  0.39452684  0.12652254    -0.13000
C153        C  0.12402035  0.36424332  0.12221002    -0.11500
C154        C  0.10484103  0.38503386  0.12817101    -0.13000
C155        C  0.10610601  0.22068921  0.37953891    -0.11500
C156        C  0.08427795  0.18125331  0.38664042    -0.13000
C157        C  0.26565437  0.37338789  0.37174315    -0.11500
C158        C  0.30642897  0.39493988  0.37739055    -0.13000
C159        C  0.12421780  0.36430990  0.37237609    -0.11500
C160        C  0.10482600  0.38475637  0.37790062    -0.13000
C161        C  0.37671921  0.11588073  0.23388183    -0.11500
C162        C  0.39640970  0.09563914  0.22806610    -0.13000
C163        C  0.38987640  0.25845167  0.23031528    -0.11500
C164        C  0.41093600  0.29794343  0.22358836    -0.13000
C165        C  0.23313734  0.10155586  0.23184840    -0.11500
C166        C  0.19258170  0.07987284  0.22562583    -0.13000
C167        C  0.37540249  0.11473678  0.48361400    -0.11500
C168        C  0.39482411  0.09422371  0.47777034    -0.13000
C169        C  0.41112957  0.29789658  0.47367998    -0.11500
C170        C  0.38986072  0.25833913  0.48042535    -0.13000
C171        C  0.23244810  0.10214719  0.48290505    -0.11500
C172        C  0.19190483  0.08024341  0.47661302    -0.13000
C173        C  0.35293701  0.13838589  0.48654956     0.82000
N174        N  0.30395180  0.11063802  0.48668217    -0.76300
C175        C  0.28312551  0.13203567  0.48638069     0.84500
N176        N  0.31134252  0.18073950  0.48520525    -0.76200
C177        C  0.36025813  0.20844757  0.48497469     0.84600
N178        N  0.38119332  0.18713906  0.48525538    -0.78000
C179        C  0.35389473  0.13931203  0.73661539     0.82000
N180        N  0.38158363  0.18811701  0.73562851    -0.76300
C181        C  0.36012701  0.20874926  0.73510161     0.84500
N182        N  0.31127199  0.18033899  0.73476675    -0.76200
C183        C  0.28359390  0.13156125  0.73562976     0.84600
N184        N  0.30495249  0.11082752  0.73618714    -0.78000
C185        C  0.14543179  0.33986402  0.87002325     0.82000
N186        N  0.11626462  0.29175000  0.87288782    -0.76300
C187        C  0.13629502  0.26990119  0.87379019     0.84500
N188        N  0.18528167  0.29642026  0.87248243    -0.76200
C189        C  0.21440093  0.34447859  0.86968742     0.84600
N190        N  0.19447502  0.36647678  0.86886999    -0.78000
C191        C  0.14518673  0.33939428  0.61945638     0.82000
N192        N  0.11622150  0.29115648  0.62201178    -0.76300
C193        C  0.13642106  0.26938280  0.62274105     0.84500
N194        N  0.18544675  0.29611954  0.62152849    -0.76200
C195        C  0.21442717  0.34431481  0.61898001     0.84600
N196        N  0.19425815  0.36621444  0.61838446    -0.78000
O197        O  0.07176516  0.41698267  0.86641430    -0.73500
O198        O  0.06887629  0.41960970  0.91954884    -0.52400
C199        C  0.08048558  0.40870943  0.88852200     0.80200
O200        O  0.09218297  0.13783747  0.90962830    -0.58100
O201        O  0.01980369  0.09995841  0.89175801    -0.51100
C202        C  0.06397002  0.13701356  0.89666666     0.72200
O203        O  0.14593130  0.08695173  0.95461713    -0.72700
O204        O  0.11105960  0.51362585  0.96829901    -0.53200
C205        C  0.14671918  0.05887337  0.96602208     0.78200
O206        O  0.01667264  0.46706113  0.82187842    -0.57800
O207        O  0.47793677  0.00525863  0.84339292    -0.50900
C208        C  0.49744251  0.48660376  0.81937281     0.74800
Zr209      Zr  0.03165922  0.45248106  0.86530588     2.54700
O210        O  0.10777722  0.48908797  0.82885180    -0.78400
O211        O  0.49447672  0.37263165  0.82593863    -0.91800
Zr212      Zr  0.08879735  0.08136500  0.93119119     2.64700
O213        O  0.16445947  0.11425446  0.89394532    -0.96700
O214        O  0.12304671  0.16013885  0.97176528    -0.78800
O215        O  0.07676152  0.50297791  0.91087936    -0.82200
O216        O  0.04585557  0.03194352  0.88477125    -2.16900
O217        O  0.35155918  0.38820742  0.89990647    -0.65500
O218        O  0.38624865  0.46144699  0.88651886    -0.50100
C219        C  0.35087943  0.41618045  0.88833846     0.73200
O220        O  0.47723386  0.00610677  0.53390872    -0.58500
O221        O  0.01803171  0.46988519  0.51229813    -0.50400
C222        C  0.49715103  0.48722571  0.53645955     0.75000
O223        O  0.42837029  0.06256565  0.98927548    -0.69900
O224        O  0.42840667  0.05717580  0.93610130    -0.48500
C225        C  0.41884313  0.07013270  0.96719816     0.76400
O226        O  0.40300600  0.34049878  0.94983612    -0.65200
O227        O  0.47628799  0.37723661  0.96588139    -0.52400
C228        C  0.43135194  0.34120086  0.96257578     0.74800
Zr229      Zr  0.40803005  0.39426638  0.92434030     2.77500
O230        O  0.32956469  0.35512100  0.95832395    -0.95900
O231        O  0.38043574  0.31782466  0.88174103    -0.76800
Zr232      Zr  0.46418810  0.02270725  0.99048443     2.70100
O233        O  0.38721231  0.48836488  0.52607566    -0.78000
O234        O  0.00476215  0.10271930  0.53027839    -0.97100
Zr235      Zr  0.02885334  0.45921222  0.95375686     2.21500
Zr236      Zr  0.46739963  0.01644026  0.90208163     2.11100
O237        O  0.41963890  0.47261169  0.94515587    -2.45800
O238        O  0.45069099  0.44379183  0.97091253    -0.77800
O239        O  0.45406607  0.43717631  0.88119277    -0.70000
O240        O  0.04278340  0.03896521  0.97457465    -2.30900
O241        O  0.48509466  0.40755003  0.90727239    -2.27200
O242        O  0.01176614  0.06841132  0.94852701    -0.71700
H243        H  0.06324084  0.04977473  0.86736403     0.80300
H244        H  0.06085424  0.05742514  0.49330338     0.81300
H245        H  0.38844298  0.46769464  0.95093177     0.83600
H246        H  0.48087431  0.37595224  0.90042271     0.81200
H247        H  0.10378663  0.15090877  0.99288944     0.44200
H248        H  0.01525619  0.12775935  0.51869291     0.43200
H249        H  0.37132132  0.45190985  0.51938215     0.42900
H250        H  0.32012452  0.37822204  0.96422286     0.40800
H251        H  0.38918249  0.32836942  0.86120757     0.43900
H252        H  0.48328771  0.34795797  0.83811483     0.38700
H253        H  0.13367888  0.01377389  0.84468792     0.44800
H254        H  0.15506234  0.10882185  0.87313106     0.41200
H255        H  0.30646999  0.32553946  0.94303874     0.46200
H256        H  0.01979249  0.37335673  0.81009327     0.44900
H257        H  0.18352118  0.15086036  0.90254228     0.45000
H258        H  0.47698769  0.10066677  0.54725964     0.45400
O259        O  0.07154546  0.41679983  0.61651468    -0.73500
O260        O  0.06858175  0.41940848  0.66966455    -0.52400
C261        C  0.08008815  0.40837620  0.63863753     0.80200
O262        O  0.09163216  0.13754464  0.65932322    -0.58100
O263        O  0.01945058  0.09959614  0.64116048    -0.51100
C264        C  0.06358108  0.13664166  0.64611025     0.72200
O265        O  0.14674835  0.08611019  0.70323271    -0.72700
O266        O  0.11146653  0.51397725  0.71835150    -0.53200
C267        C  0.14734242  0.05829036  0.71507613     0.78200
O268        O  0.01624066  0.46669847  0.57180701    -0.57800
O269        O  0.47850842  0.00614649  0.59361484    -0.50900
C270        C  0.49680117  0.48613440  0.56940078     0.74800
Zr271      Zr  0.03191245  0.45265334  0.61515851     2.54700
O272        O  0.10829507  0.48925234  0.57897680    -0.78400
O273        O  0.49605695  0.37368678  0.57452782    -0.91800
Zr274      Zr  0.08903124  0.08177670  0.68128067     2.64700
O275        O  0.16572347  0.11743112  0.64518990    -0.96700
O276        O  0.12211582  0.15950053  0.72283249    -0.78800
O277        O  0.07712055  0.50315131  0.66066020    -0.82200
O278        O  0.04619722  0.03233507  0.63480470    -2.16900
O279        O  0.35181560  0.38842680  0.64936131    -0.65500
O280        O  0.38634212  0.46187406  0.63633890    -0.50100
C281        C  0.35108491  0.41645184  0.63785103     0.73200
O282        O  0.47751862  0.00611101  0.78372501    -0.58500
O283        O  0.01881885  0.47055539  0.76233812    -0.50400
C284        C  0.49772925  0.48759816  0.78639044     0.75000
O285        O  0.42902332  0.06323623  0.73939424    -0.69900
O286        O  0.43002663  0.05879514  0.68622798    -0.48500
C287        C  0.42005081  0.07131970  0.71730680     0.76400
O288        O  0.40292881  0.34069942  0.69983346    -0.65200
O289        O  0.47602694  0.37772816  0.71630624    -0.52400
C290        C  0.43116820  0.34160241  0.71283296     0.74800
Zr291      Zr  0.40780191  0.39454317  0.67452691     2.77500
O292        O  0.33026755  0.35702875  0.70963205    -0.95900
O293        O  0.37916623  0.31749578  0.63241724    -0.76800
Zr294      Zr  0.46506938  0.02362488  0.74059582     2.70100
O295        O  0.38721046  0.48815062  0.77579002    -0.78000
O296        O  0.00436495  0.10287259  0.78079598    -0.97100
Zr297      Zr  0.02929700  0.45976531  0.70374345     2.21500
Zr298      Zr  0.46847610  0.01759048  0.65223916     2.11100
O299        O  0.41959307  0.47297059  0.69524938    -2.45800
O300        O  0.45087531  0.44417923  0.72093236    -0.77800
O301        O  0.45380167  0.43717445  0.63129026    -0.70000
O302        O  0.04309568  0.03942699  0.72471833    -2.30900
O303        O  0.48479850  0.40759540  0.65738632    -2.27200
O304        O  0.01187056  0.06848519  0.69856905    -0.71700
H305        H  0.06362511  0.05015486  0.61739004     0.80300
H306        H  0.06114738  0.05796301  0.74337118     0.81300
H307        H  0.38845920  0.46819103  0.70103152     0.83600
H308        H  0.48045045  0.37593352  0.65054985     0.81200
H309        H  0.09626197  0.16509349  0.72988385     0.44200
H310        H  0.01386825  0.12797981  0.76968146     0.43200
H311        H  0.37480353  0.45304954  0.77272274     0.42900
H312        H  0.32090687  0.38011337  0.71514559     0.40800
H313        H  0.39439293  0.32852219  0.61146657     0.43900
H314        H  0.48599649  0.34859474  0.58588782     0.38700
H315        H  0.13143583  0.02356589  0.59399127     0.44800
H316        H  0.15740646  0.11540980  0.62503863     0.41200
H317        H  0.30669003  0.32690270  0.69485642     0.46200
H318        H  0.01901507  0.37629029  0.55758834     0.44900
H319        H  0.18514514  0.15350129  0.65557834     0.45000
H320        H  0.47639929  0.10236111  0.79595489     0.45400
C321        C  0.08407189  0.18080731  0.63588005    -0.11500
C322        C  0.10602197  0.22015576  0.62862376    -0.13000
C323        C  0.26547445  0.37341015  0.62121358    -0.11500
C324        C  0.30631758  0.39508721  0.62688227    -0.13000
C325        C  0.12346154  0.36367546  0.62220491    -0.11500
C326        C  0.10412209  0.38425448  0.62803899    -0.13000
C327        C  0.10587136  0.22071723  0.87967952    -0.11500
C328        C  0.08421446  0.18131194  0.88674489    -0.13000
C329        C  0.26532457  0.37336865  0.87192498    -0.11500
C330        C  0.30609457  0.39491940  0.87757507    -0.13000
C331        C  0.12400022  0.36424659  0.87237569    -0.11500
C332        C  0.10475104  0.38483543  0.87794589    -0.13000
C333        C  0.37703241  0.11640668  0.73380233    -0.11500
C334        C  0.39674802  0.09620199  0.72797056    -0.13000
C335        C  0.38928070  0.25861853  0.73069085    -0.11500
C336        C  0.41050004  0.29807748  0.72386054    -0.13000
C337        C  0.23297683  0.10106240  0.73170350    -0.11500
C338        C  0.19244282  0.07917584  0.72535240    -0.13000
C339        C  0.37558653  0.11511473  0.98387845    -0.11500
C340        C  0.39534261  0.09488198  0.97791339    -0.13000
C341        C  0.41069864  0.29758653  0.97353099    -0.11500
C342        C  0.38940011  0.25816816  0.98047414    -0.13000
C343        C  0.23215250  0.10186558  0.98302382    -0.11500
C344        C  0.19162166  0.08003494  0.97669914    -0.13000
C345        C  0.35271459  0.63806897  0.98656202     0.82000
N346        N  0.30367099  0.61032049  0.98687962    -0.76300
C347        C  0.28279102  0.63167050  0.98655102     0.84500
N348        N  0.31102704  0.68028818  0.98513179    -0.76200
C349        C  0.35999071  0.70796342  0.98469149     0.84600
N350        N  0.38094074  0.68671547  0.98503936    -0.78000
C351        C  0.35359115  0.63875236  0.23611672     0.82000
N352        N  0.38161675  0.68750733  0.23495979    -0.76300
C353        C  0.36049970  0.70856765  0.23461337     0.84500
N354        N  0.31159314  0.68063035  0.23466870    -0.76200
C355        C  0.28356365  0.63187364  0.23569120     0.84600
N356        N  0.30460764  0.61070324  0.23603806    -0.78000
C357        C  0.14522934  0.83922403  0.36954839     0.82000
N358        N  0.11599944  0.79120645  0.37261775    -0.76300
C359        C  0.13597141  0.76926314  0.37345119     0.84500
N360        N  0.18498913  0.79562037  0.37190266    -0.76200
C361        C  0.21420544  0.84360598  0.36891960     0.84600
N362        N  0.19431005  0.86567370  0.36814720    -0.78000
C363        C  0.14537775  0.83947604  0.11935770     0.82000
N364        N  0.11635996  0.79141005  0.12228934    -0.76300
C365        C  0.13652559  0.76970708  0.12320480     0.84500
N366        N  0.18555433  0.79637333  0.12188523    -0.76200
C367        C  0.21459235  0.84441007  0.11900345     0.84600
N368        N  0.19447422  0.86621542  0.11813342    -0.78000
O369        O  0.07157705  0.91654847  0.36622309    -0.73500
O370        O  0.06933184  0.91975523  0.41936154    -0.52400
C371        C  0.08055281  0.90848309  0.38831371     0.80200
O372        O  0.09144989  0.63762658  0.41006426    -0.58100
O373        O  0.01944718  0.59937314  0.39150472    -0.51100
C374        C  0.06343000  0.63660038  0.39674371     0.72200
O375        O  0.14593505  0.58675252  0.45470203    -0.72700
O376        O  0.11151357  0.01385499  0.46802665    -0.53200
C377        C  0.14689989  0.55860303  0.46590198     0.78200
O378        O  0.01684714  0.96739124  0.32191789    -0.57800
O379        O  0.47813137  0.50581454  0.34371490    -0.50900
C380        C  0.49714693  0.98612966  0.31926339     0.74800
Zr381      Zr  0.03193017  0.95258114  0.36515807     2.54700
O382        O  0.10827518  0.98953604  0.32897212    -0.78400
O383        O  0.49666694  0.87380046  0.32459630    -0.91800
Zr384      Zr  0.08873100  0.58135502  0.43141347     2.64700
O385        O  0.16405037  0.61438911  0.39385688    -0.96700
O386        O  0.12393500  0.66054763  0.47161412    -0.78800
O387        O  0.07714516  0.00307016  0.41064266    -0.82200
O388        O  0.04572358  0.53185077  0.38501235    -2.16900
O389        O  0.35142010  0.88784755  0.39975622    -0.65500
O390        O  0.38586742  0.96111246  0.38649851    -0.50100
C391        C  0.35062036  0.91573724  0.38816693     0.73200
O392        O  0.47626426  0.50495596  0.03388313    -0.58500
O393        O  0.01799641  0.96992048  0.01227663    -0.50400
C394        C  0.49716125  0.98688454  0.03615268     0.75000
O395        O  0.42839478  0.56267442  0.48948133    -0.69900
O396        O  0.42826341  0.55684573  0.43623817    -0.48500
C397        C  0.41872575  0.56993139  0.46731445     0.76400
O398        O  0.40328146  0.84057234  0.44990164    -0.65200
O399        O  0.47656234  0.87749208  0.46604170    -0.52400
C400        C  0.43164158  0.84140250  0.46272748     0.74800
Zr401      Zr  0.40783871  0.89423000  0.42455385     2.77500
O402        O  0.33065728  0.85742751  0.46007982    -0.95900
O403        O  0.37748526  0.81675792  0.38275474    -0.76800
Zr404      Zr  0.46470559  0.52342816  0.49081792     2.70100
O405        O  0.38614400  0.98723153  0.02515253    -0.78000
O406        O  0.00296588  0.60203931  0.03102983    -0.97100
Zr407      Zr  0.02928673  0.95933388  0.45355179     2.21500
Zr408      Zr  0.46789046  0.51679668  0.40232509     2.11100
O409        O  0.41941643  0.97251579  0.44513176    -2.45800
O410        O  0.45081620  0.94387351  0.47097183    -0.77800
O411        O  0.45385465  0.93691982  0.38127800    -0.70000
O412        O  0.04280408  0.53890410  0.47478735    -2.30900
O413        O  0.48493896  0.90752224  0.40729617    -2.27200
O414        O  0.01154472  0.56808457  0.44861716    -0.71700
H415        H  0.06310752  0.54972513  0.36762985     0.80300
H416        H  0.06026374  0.55727024  0.99359488     0.81300
H417        H  0.38821813  0.96758925  0.45088924     0.83600
H418        H  0.48065321  0.87588899  0.40042415     0.81200
H419        H  0.10696187  0.65141992  0.49306220     0.44200
H420        H  0.01491691  0.62751339  0.01931034     0.43200
H421        H  0.37354176  0.95204200  0.02196827     0.42900
H422        H  0.32100262  0.88015314  0.46509147     0.40800
H423        H  0.39330085  0.82752882  0.36172380     0.43900
H424        H  0.48541688  0.84858617  0.33630115     0.38700
H425        H  0.13327821  0.51325809  0.34346184     0.44800
H426        H  0.15423600  0.60824090  0.37301269     0.41200
H427        H  0.30702346  0.82675419  0.44559740     0.46200
H428        H  0.02089481  0.87345827  0.31019163     0.44900
H429        H  0.18276022  0.65103913  0.40217055     0.45000
H430        H  0.47786949  0.60199797  0.04655197     0.45400
O431        O  0.07115983  0.91643470  0.11649417    -0.73500
O432        O  0.06895789  0.91959896  0.16962338    -0.52400
C433        C  0.08013052  0.90832105  0.13856388     0.80200
O434        O  0.09202658  0.63769639  0.15929076    -0.58100
O435        O  0.01963823  0.59977649  0.14145466    -0.51100
C436        C  0.06385240  0.63679718  0.14624055     0.72200
O437        O  0.14637649  0.58684222  0.20400843    -0.72700
O438        O  0.11160338  0.01416144  0.21814918    -0.53200
C439        C  0.14712563  0.55895759  0.21566351     0.78200
O440        O  0.01653364  0.96713055  0.07186408    -0.57800
O441        O  0.47725607  0.50474006  0.09358207    -0.50900
C442        C  0.49706023  0.98608028  0.06915049     0.74800
Zr443      Zr  0.03182082  0.95269589  0.11523523     2.54700
O444        O  0.10858108  0.99070193  0.07955597    -0.78400
O445        O  0.49523135  0.87358498  0.07486715    -0.91800
Zr446      Zr  0.08875463  0.58192669  0.18155410     2.64700
O447        O  0.16494053  0.61692915  0.14496098    -0.96700
O448        O  0.12123606  0.66026920  0.22258767    -0.78800
O449        O  0.07694272  0.00312062  0.16075124    -0.82200
O450        O  0.04631193  0.53258077  0.13490088    -2.16900
O451        O  0.35178794  0.88858931  0.14987167    -0.65500
O452        O  0.38655130  0.96179428  0.13638265    -0.50100
C453        C  0.35113331  0.91651426  0.13818958     0.73200
O454        O  0.47748578  0.50643091  0.28400623    -0.58500
O455        O  0.01815618  0.97000436  0.26238224    -0.50400
C456        C  0.49767149  0.98729074  0.28627751     0.75000
O457        O  0.42898686  0.56325549  0.23945517    -0.69900
O458        O  0.42899659  0.55758370  0.18621254    -0.48500
C459        C  0.41952616  0.57070967  0.21728246     0.76400
O460        O  0.40387557  0.84073241  0.19945659    -0.65200
O461        O  0.47698194  0.87773485  0.21590537    -0.52400
C462        C  0.43216730  0.84154842  0.21234256     0.74800
Zr463      Zr  0.40820342  0.89474051  0.17461652     2.77500
O464        O  0.33122524  0.85832515  0.21045258    -0.95900
O465        O  0.37889574  0.81745006  0.13272516    -0.76800
Zr466      Zr  0.46457281  0.52327943  0.24074824     2.70100
O467        O  0.38730836  0.98693561  0.27525656    -0.78000
O468        O  0.00299237  0.60186528  0.28122692    -0.97100
Zr469      Zr  0.02929693  0.95959511  0.20376659     2.21500
Zr470      Zr  0.46756843  0.51656169  0.15222577     2.11100
O471        O  0.42012920  0.97321014  0.19511650    -2.45800
O472        O  0.45135491  0.94429000  0.22095838    -0.77800
O473        O  0.45423901  0.93733697  0.13131347    -0.70000
O474        O  0.04271594  0.53929395  0.22485686    -2.30900
O475        O  0.48526678  0.90790389  0.15728337    -2.27200
O476        O  0.01144352  0.56828264  0.19873427    -0.71700
H477        H  0.06371145  0.55044435  0.11751047     0.80300
H478        H  0.06060482  0.55773340  0.24358324     0.81300
H479        H  0.38900734  0.96845243  0.20091670     0.83600
H480        H  0.48094012  0.87625226  0.15041292     0.81200
H481        H  0.11092409  0.65057212  0.24370094     0.44200
H482        H  0.01617314  0.62760102  0.26934546     0.43200
H483        H  0.37403133  0.95123806  0.27048660     0.42900
H484        H  0.32352826  0.88300068  0.21742413     0.40800
H485        H  0.39388507  0.82831487  0.11171981     0.43900
H486        H  0.48376877  0.84839527  0.08666824     0.38700
H487        H  0.13447619  0.51566417  0.09515396     0.44800
H488        H  0.15546511  0.60999927  0.12376014     0.41200
H489        H  0.30669011  0.82969265  0.19568284     0.46200
H490        H  0.02150215  0.87628100  0.05830875     0.44900
H491        H  0.18251778  0.65351220  0.15319326     0.45000
H492        H  0.47595783  0.60210765  0.29607607     0.45400
C493        C  0.08424046  0.68101850  0.13614204    -0.11500
C494        C  0.10613257  0.72048944  0.12908489    -0.13000
C495        C  0.26560384  0.87354726  0.12138534    -0.11500
C496        C  0.30635095  0.89517984  0.12723321    -0.13000
C497        C  0.12369368  0.86376089  0.12199094    -0.11500
C498        C  0.10428267  0.88428627  0.12785803    -0.13000
C499        C  0.10547499  0.72019509  0.37955655    -0.11500
C500        C  0.08373285  0.68085977  0.38674808    -0.13000
C501        C  0.26516740  0.87250292  0.37122219    -0.11500
C502        C  0.30587741  0.89420190  0.37712173    -0.13000
C503        C  0.12384801  0.86373294  0.37203081    -0.11500
C504        C  0.10465824  0.88441852  0.37769082    -0.13000
C505        C  0.37639357  0.61556826  0.23341128    -0.11500
C506        C  0.39615342  0.59547928  0.22779948    -0.13000
C507        C  0.39002411  0.75839768  0.23006037    -0.11500
C508        C  0.41152247  0.79790298  0.22321352    -0.13000
C509        C  0.23283719  0.60180233  0.23217382    -0.11500
C510        C  0.19221695  0.57998853  0.22601441    -0.13000
C511        C  0.37584044  0.61514892  0.48369494    -0.11500
C512        C  0.39530825  0.59469447  0.47788482    -0.13000
C513        C  0.41100152  0.79785951  0.47376786    -0.11500
C514        C  0.38965427  0.75839555  0.48066102    -0.13000
C515        C  0.23250132  0.60175252  0.48269930    -0.11500
C516        C  0.19190691  0.57977418  0.47643584    -0.13000
C517        C  0.35317519  0.63858699  0.48661491     0.82000
N518        N  0.30420196  0.61062065  0.48657734    -0.76300
C519        C  0.28319555  0.63183971  0.48627246     0.84500
N520        N  0.31124841  0.68060109  0.48525912    -0.76200
C521        C  0.36015598  0.70851965  0.48519690     0.84600
N522        N  0.38125344  0.68738271  0.48548333    -0.78000
C523        C  0.35410290  0.63938945  0.73648586     0.82000
N524        N  0.38207894  0.68800206  0.73500854    -0.76300
C525        C  0.36093315  0.70874271  0.73414296     0.84500
N526        N  0.31204612  0.68063366  0.73401141    -0.76200
C527        C  0.28404374  0.63203626  0.73542565     0.84600
N528        N  0.30512869  0.61118637  0.73628371    -0.78000
C529        C  0.14481716  0.83899042  0.86950514     0.82000
N530        N  0.11576110  0.79090610  0.87240442    -0.76300
C531        C  0.13589291  0.76918257  0.87334330     0.84500
N532        N  0.18489739  0.79581928  0.87205939    -0.76200
C533        C  0.21394981  0.84385970  0.86921699     0.84600
N534        N  0.19389387  0.86571874  0.86834733    -0.78000
C535        C  0.14569681  0.84006695  0.62001447     0.82000
N536        N  0.11664965  0.79184825  0.62265954    -0.76300
C537        C  0.13678289  0.77001373  0.62342502     0.84500
N538        N  0.18580430  0.79668961  0.62219191    -0.76200
C539        C  0.21483835  0.84484998  0.61956034     0.84600
N540        N  0.19475935  0.86677901  0.61887195    -0.78000
O541        O  0.07097355  0.91614217  0.86637127    -0.73500
O542        O  0.06864278  0.91934025  0.91952758    -0.52400
C543        C  0.07983139  0.90800022  0.88847938     0.80200
O544        O  0.09148775  0.63741991  0.90977636    -0.58100
O545        O  0.01934490  0.59933591  0.89147736    -0.51100
C546        C  0.06343000  0.63645468  0.89653610     0.72200
O547        O  0.14542376  0.58720104  0.95551850    -0.72700
O548        O  0.11110850  0.01379371  0.96818790    -0.53200
C549        C  0.14642899  0.55894419  0.96657690     0.78200
O550        O  0.01640159  0.96680067  0.82178874    -0.57800
O551        O  0.47809744  0.50555282  0.84363007    -0.50900
C552        C  0.49718503  0.98620718  0.81912832     0.74800
Zr553      Zr  0.03169997  0.95246718  0.86517899     2.54700
O554        O  0.10850213  0.99030062  0.82951635    -0.78400
O555        O  0.49386964  0.87232216  0.82593028    -0.91800
Zr556      Zr  0.08851099  0.58136252  0.93156296     2.64700
O557        O  0.16411966  0.61397739  0.89426666    -0.96700
O558        O  0.12315174  0.66065587  0.97166901    -0.78800
O559        O  0.07681807  0.00287130  0.91069712    -0.82200
O560        O  0.04567016  0.53187303  0.88508382    -2.16900
O561        O  0.35150461  0.88784492  0.89946725    -0.65500
O562        O  0.38563624  0.96137217  0.88671540    -0.50100
C563        C  0.35050191  0.91591013  0.88821461     0.73200
O564        O  0.47698892  0.50593826  0.53402739    -0.58500
O565        O  0.01874209  0.97018800  0.51217663    -0.50400
C566        C  0.49786275  0.98790053  0.53639234     0.75000
O567        O  0.42845925  0.56265394  0.98953280    -0.69900
O568        O  0.42822640  0.55682020  0.93630939    -0.48500
C569        C  0.41871107  0.56988528  0.96739444     0.76400
O570        O  0.40351893  0.84017451  0.94921952    -0.65200
O571        O  0.47667729  0.87715144  0.96556747    -0.52400
C572        C  0.43181844  0.84095441  0.96207607     0.74800
Zr573      Zr  0.40796709  0.89401695  0.92410212     2.77500
O574        O  0.33065424  0.85624158  0.95934526    -0.95900
O575        O  0.37799317  0.81682259  0.88203772    -0.76800
Zr576      Zr  0.46452698  0.52311315  0.99076672     2.70100
O577        O  0.38684514  0.98753306  0.52580637    -0.78000
O578        O  0.00544913  0.60301273  0.53004025    -0.97100
Zr579      Zr  0.02888199  0.95924645  0.95364614     2.21500
Zr580      Zr  0.46776214  0.51669830  0.90228634     2.11100
O581        O  0.41931452  0.97222817  0.94487924    -2.45800
O582        O  0.45074138  0.94356423  0.97062558    -0.77800
O583        O  0.45392226  0.93700846  0.88098481    -0.70000
O584        O  0.04240710  0.53879329  0.97485022    -2.30900
O585        O  0.48514207  0.90750610  0.90704210    -2.27200
O586        O  0.01129440  0.56801957  0.94868185    -0.71700
H587        H  0.06311700  0.54974841  0.86770065     0.80300
H588        H  0.06073042  0.55733431  0.49349593     0.81300
H589        H  0.38809955  0.96727013  0.95066060     0.83600
H590        H  0.48096984  0.87593293  0.90017913     0.81200
H591        H  0.10294464  0.65200132  0.99272553     0.44200
H592        H  0.01877579  0.62823209  0.51765222     0.43200
H593        H  0.37086190  0.95106944  0.51874819     0.42900
H594        H  0.32162559  0.87972505  0.96550355     0.40800
H595        H  0.38959170  0.82750621  0.86115260     0.43900
H596        H  0.48035184  0.84745486  0.83867332     0.38700
H597        H  0.13286956  0.51607461  0.84368088     0.44800
H598        H  0.15471682  0.60862031  0.87347786     0.41200
H599        H  0.30685218  0.82663793  0.94447481     0.46200
H600        H  0.02111374  0.87464388  0.80925143     0.44900
H601        H  0.18329713  0.65058707  0.90285321     0.45000
H602        H  0.47811459  0.60097212  0.54762409     0.45400
O603        O  0.07185118  0.91717761  0.61664413    -0.73500
O604        O  0.06870048  0.91960448  0.66977882    -0.52400
C605        C  0.08042522  0.90877924  0.63876957     0.80200
O606        O  0.09227265  0.63730790  0.65877913    -0.58100
O607        O  0.01979888  0.59972271  0.64119737    -0.51100
C608        C  0.06410373  0.63659426  0.64583718     0.72200
O609        O  0.14662118  0.58652874  0.70384189    -0.72700
O610        O  0.11127928  0.01375578  0.71815091    -0.53200
C611        C  0.14735559  0.55871338  0.71558129     0.78200
O612        O  0.01715452  0.96730535  0.57175095    -0.57800
O613        O  0.47768574  0.50530093  0.59366324    -0.50900
C614        C  0.49783327  0.98717996  0.56936486     0.74800
Zr615      Zr  0.03204401  0.95288375  0.61526178     2.54700
O616        O  0.10907579  0.99115285  0.57991918    -0.78400
O617        O  0.49425513  0.87376580  0.57558168    -0.91800
Zr618      Zr  0.08917754  0.58166721  0.68117170     2.64700
O619        O  0.16575400  0.61677520  0.64492179    -0.96700
O620        O  0.12269582  0.66015628  0.72203034    -0.78800
O621        O  0.07698849  0.00326365  0.66081249    -0.82200
O622        O  0.04627422  0.53219186  0.63471389    -2.16900
O623        O  0.35237020  0.88913461  0.64961417    -0.65500
O624        O  0.38695049  0.96249292  0.63642882    -0.50100
C625        C  0.35164168  0.91712686  0.63808795     0.73200
O626        O  0.47754523  0.50627087  0.78391205    -0.58500
O627        O  0.01815807  0.96999642  0.76229552    -0.50400
C628        C  0.49766505  0.98739476  0.78618335     0.75000
O629        O  0.42933711  0.56356836  0.73944371    -0.69900
O630        O  0.42926585  0.55796914  0.68624134    -0.48500
C631        C  0.41989108  0.57112735  0.71732693     0.76400
O632        O  0.40435387  0.84082114  0.69883306    -0.65200
O633        O  0.47719984  0.87805616  0.71577807    -0.52400
C634        C  0.43254082  0.84170266  0.71187788     0.74800
Zr635      Zr  0.40849025  0.89513557  0.67444037     2.77500
O636        O  0.33106022  0.85820938  0.70976639    -0.95900
O637        O  0.37884849  0.81824438  0.63217034    -0.76800
Zr638      Zr  0.46487798  0.52353791  0.74071171     2.70100
O639        O  0.38636356  0.98632522  0.77443087    -0.78000
O640        O  0.00310489  0.60203349  0.78139970    -0.97100
Zr641      Zr  0.02905302  0.95961487  0.70374467     2.21500
Zr642      Zr  0.46773777  0.51679340  0.65226103     2.11100
O643        O  0.42017847  0.97347827  0.69504112    -2.45800
O644        O  0.45138720  0.94441781  0.72089946    -0.77800
O645        O  0.45465949  0.93808563  0.63134645    -0.70000
O646        O  0.04312686  0.53943998  0.72468034    -2.30900
O647        O  0.48554723  0.90838541  0.65727173    -2.27200
O648        O  0.01204538  0.56850087  0.69859065    -0.71700
H649        H  0.06364446  0.54993391  0.61726047     0.80300
H650        H  0.06108820  0.55791381  0.74337218     0.81300
H651        H  0.38903326  0.96866973  0.70079918     0.83600
H652        H  0.48122877  0.87673726  0.65036618     0.81200
H653        H  0.11060351  0.65039091  0.74329849     0.44200
H654        H  0.01670823  0.62790393  0.76951432     0.43200
H655        H  0.37360350  0.95084676  0.77008874     0.42900
H656        H  0.32100647  0.88047641  0.71428241     0.40800
H657        H  0.39339917  0.82939010  0.61127110     0.43900
H658        H  0.48070433  0.84852435  0.58800862     0.38700
H659        H  0.12956415  0.52387336  0.59137521     0.44800
H660        H  0.15724118  0.61386098  0.62453740     0.41200
H661        H  0.30770260  0.82714360  0.69533374     0.46200
H662        H  0.02208192  0.87688178  0.55811247     0.44900
H663        H  0.18498788  0.65301363  0.65487537     0.45000
H664        H  0.47809772  0.60335500  0.79571853     0.45400
C665        C  0.08454360  0.68091656  0.63579717    -0.11500
C666        C  0.10637209  0.72054607  0.62895190    -0.13000
C667        C  0.26588505  0.87389573  0.62169306    -0.11500
C668        C  0.30680014  0.89572281  0.62725400    -0.13000
C669        C  0.12410382  0.86441241  0.62256623    -0.11500
C670        C  0.10473292  0.88492355  0.62822521    -0.13000
C671        C  0.10552144  0.72004315  0.87931526    -0.11500
C672        C  0.08378629  0.68067978  0.88646787    -0.13000
C673        C  0.26490175  0.87291405  0.87161041    -0.11500
C674        C  0.30564155  0.89451071  0.87740613    -0.13000
C675        C  0.12319239  0.86328832  0.87206423    -0.11500
C676        C  0.10386218  0.88386394  0.87784724    -0.13000
C677        C  0.37699332  0.61631392  0.73382215    -0.11500
C678        C  0.39668852  0.59609520  0.72798259    -0.13000
C679        C  0.39043359  0.75845210  0.72940492    -0.11500
C680        C  0.41193830  0.79795966  0.72257808    -0.13000
C681        C  0.23325230  0.60176656  0.73194848    -0.11500
C682        C  0.19252022  0.57979321  0.72589774    -0.13000
C683        C  0.37531168  0.61459255  0.98375059    -0.11500
C684        C  0.39505658  0.59442482  0.97799720    -0.13000
C685        C  0.41113152  0.79724372  0.97297327    -0.11500
C686        C  0.38964298  0.75774064  0.97988374    -0.13000
C687        C  0.23196726  0.60183628  0.98337600    -0.11500
C688        C  0.19134669  0.58010504  0.97725069    -0.13000
C689        C  0.85273067  0.13846530  0.98683493     0.82000
N690        N  0.80377320  0.11052568  0.98672029    -0.76300
C691        C  0.78286930  0.13181142  0.98634174     0.84500
N692        N  0.81099151  0.18056008  0.98529702    -0.76200
C693        C  0.85987317  0.20842841  0.98529174     0.84600
N694        N  0.88087087  0.18725444  0.98568340    -0.78000
C695        C  0.85369721  0.13930375  0.23689868     0.82000
N696        N  0.88169165  0.18797406  0.23552577    -0.76300
C697        C  0.86054403  0.20884949  0.23488375     0.84500
N698        N  0.81163852  0.18079435  0.23484661    -0.76200
C699        C  0.78363752  0.13214527  0.23614282     0.84600
N700        N  0.80471921  0.11118286  0.23679070    -0.78000
C701        C  0.64490136  0.33942372  0.37021825     0.82000
N702        N  0.61569583  0.29146978  0.37337643    -0.76300
C703        C  0.63569508  0.26963549  0.37432682     0.84500
N704        N  0.68471525  0.29603097  0.37280046    -0.76200
C705        C  0.71389915  0.34396977  0.36972182     0.84600
N706        N  0.69397623  0.36593290  0.36882818    -0.78000
C707        C  0.64558588  0.33989204  0.11986643     0.82000
N708        N  0.61652641  0.29178533  0.12272649    -0.76300
C709        C  0.63665443  0.26988041  0.12334698     0.84500
N710        N  0.68571104  0.29638061  0.12174166    -0.76200
C711        C  0.71478918  0.34445659  0.11892967     0.84600
N712        N  0.69470576  0.36648637  0.11840333    -0.78000
O713        O  0.57145384  0.41661388  0.36658882    -0.73500
O714        O  0.56878743  0.41949147  0.41974143    -0.52400
C715        C  0.58016589  0.40837237  0.38871760     0.80200
O716        O  0.59151142  0.13764394  0.41011411    -0.58100
O717        O  0.51938223  0.09941516  0.39173980    -0.51100
C718        C  0.56334820  0.13667190  0.39699793     0.72200
O719        O  0.64604762  0.08667619  0.45437269    -0.72700
O720        O  0.61139849  0.51386454  0.46816349    -0.53200
C721        C  0.64690524  0.05865639  0.46578523     0.78200
O722        O  0.51689232  0.46739506  0.32184449    -0.57800
O723        O  0.97785663  0.00558750  0.34377091    -0.50900
C724        C  0.99704564  0.48637935  0.31945517     0.74800
Zr725      Zr  0.53206257  0.45264927  0.36511744     2.54700
O726        O  0.60840087  0.48922913  0.32883697    -0.78400
O727        O  0.99336445  0.37217459  0.32622570    -0.91800
Zr728      Zr  0.58872196  0.08119639  0.43123252     2.64700
O729        O  0.66406419  0.11400111  0.39366093    -0.96700
O730        O  0.62363427  0.16016590  0.47161000    -0.78800
O731        O  0.57701192  0.50304212  0.41075822    -0.82200
O732        O  0.54585926  0.03185696  0.38478230    -2.16900
O733        O  0.85137974  0.38829767  0.40006839    -0.65500
O734        O  0.88578101  0.46155120  0.38682867    -0.50100
C735        C  0.85052676  0.41619968  0.38854034     0.73200
O736        O  0.97718597  0.00621833  0.03399467    -0.58500
O737        O  0.51780046  0.46944462  0.01223508    -0.50400
C738        C  0.99722747  0.48746516  0.03652227     0.75000
O739        O  0.92800157  0.06223019  0.48962471    -0.69900
O740        O  0.92884610  0.05765631  0.43646175    -0.48500
C741        C  0.91881304  0.07011698  0.46754370     0.76400
O742        O  0.90330458  0.34051436  0.44975300    -0.65200
O743        O  0.97649537  0.37751521  0.46606480    -0.52400
C744        C  0.93164410  0.34133185  0.46259271     0.74800
Zr745      Zr  0.90777732  0.39439551  0.42468079     2.77500
O746        O  0.83002574  0.35655135  0.45952982    -0.95900
O747        O  0.87776970  0.31698248  0.38284892    -0.76800
Zr748      Zr  0.96474521  0.02329583  0.49080577     2.70100
O749        O  0.88595165  0.48682809  0.02519620    -0.78000
O750        O  0.50378699  0.10181536  0.03029889    -0.97100
Zr751      Zr  0.52910677  0.45937893  0.45369594     2.21500
Zr752      Zr  0.96772111  0.01688078  0.40241138     2.11100
O753        O  0.91949569  0.47277391  0.44539793    -2.45800
O754        O  0.95085257  0.44403773  0.47106610    -0.77800
O755        O  0.95360616  0.43705605  0.38139201    -0.70000
O756        O  0.54263565  0.03877710  0.47459379    -2.30900
O757        O  0.98481082  0.40755871  0.40743600    -2.27200
O758        O  0.51147710  0.06780314  0.44841819    -0.71700
H759        H  0.56322792  0.04974929  0.36740870     0.80300
H760        H  0.56034098  0.05708740  0.99317552     0.81300
H761        H  0.88832217  0.46790829  0.45122734     0.83600
H762        H  0.98052673  0.37593075  0.40059204     0.81200
H763        H  0.60317826  0.15139222  0.49258661     0.44200
H764        H  0.51665682  0.12727534  0.01826284     0.43200
H765        H  0.87188631  0.45084844  0.01986460     0.42900
H766        H  0.82141276  0.38041723  0.46594577     0.40800
H767        H  0.88803534  0.32732283  0.36198851     0.43900
H768        H  0.98236257  0.34759286  0.33841770     0.38700
H769        H  0.63433712  0.01342980  0.34524111     0.44800
H770        H  0.65442026  0.10851203  0.37293657     0.41200
H771        H  0.80625200  0.32742685  0.44445449     0.46200
H772        H  0.52129736  0.37410780  0.30971019     0.44900
H773        H  0.68316429  0.15061551  0.40221936     0.45000
H774        H  0.97968488  0.10150122  0.04777828     0.45400
O775        O  0.57144471  0.41670560  0.11669400    -0.73500
O776        O  0.56815374  0.41895969  0.16981721    -0.52400
C777        C  0.57993668  0.40822443  0.13881067     0.80200
O778        O  0.59201904  0.13731294  0.15905153    -0.58100
O779        O  0.51978080  0.09954544  0.14104423    -0.51100
C780        C  0.56393649  0.13656923  0.14598783     0.72200
O781        O  0.64671053  0.08616365  0.20361357    -0.72700
O782        O  0.61110452  0.51389322  0.21834189    -0.53200
C783        C  0.64729935  0.05851663  0.21564496     0.78200
O784        O  0.51581465  0.46611905  0.07175169    -0.57800
O785        O  0.97772557  0.00549623  0.09370247    -0.50900
C786        C  0.99714156  0.48669007  0.06948768     0.74800
Zr787      Zr  0.53163280  0.45228482  0.11514931     2.54700
O788        O  0.60870054  0.49058460  0.07984426    -0.78400
O789        O  0.99570758  0.37454755  0.07475764    -0.91800
Zr790      Zr  0.58932788  0.08150296  0.18101111     2.64700
O791        O  0.66570516  0.11677824  0.14461068    -0.96700
O792        O  0.62242437  0.15973316  0.22212576    -0.78800
O793        O  0.57667854  0.50275194  0.16069941    -0.82200
O794        O  0.54646761  0.03213884  0.13453543    -2.16900
O795        O  0.85208853  0.38810368  0.14913617    -0.65500
O796        O  0.88663554  0.46154144  0.13607744    -0.50100
C797        C  0.85140087  0.41610070  0.13756459     0.73200
O798        O  0.97815364  0.00715530  0.28413119    -0.58500
O799        O  0.51836071  0.47023178  0.26232134    -0.50400
C800        C  0.99744368  0.48750651  0.28649597     0.75000
O801        O  0.92869268  0.06314334  0.23970904    -0.69900
O802        O  0.92930971  0.05823321  0.18650634    -0.48500
C803        C  0.91951068  0.07096982  0.21759339     0.76400
O804        O  0.90382602  0.34083122  0.19952863    -0.65200
O805        O  0.97685476  0.37810820  0.21620036    -0.52400
C806        C  0.93210623  0.34179479  0.21253351     0.74800
Zr807      Zr  0.90815027  0.39460586  0.17445826     2.77500
O808        O  0.83028576  0.35721080  0.20929175    -0.95900
O809        O  0.87998048  0.31760808  0.13236506    -0.76800
Zr810      Zr  0.96512249  0.02393620  0.24090517     2.70100
O811        O  0.88622900  0.48627731  0.27532356    -0.78000
O812        O  0.50450930  0.10268984  0.28050691    -0.97100
Zr813      Zr  0.52885051  0.45931351  0.20372597     2.21500
Zr814      Zr  0.96773118  0.01700423  0.15237595     2.11100
O815        O  0.91966359  0.47288276  0.19514950    -2.45800
O816        O  0.95079750  0.44405623  0.22105268    -0.77800
O817        O  0.95427589  0.43756673  0.13136301    -0.70000
O818        O  0.54337859  0.03914538  0.22444773    -2.30900
O819        O  0.98535406  0.40816442  0.15734950    -2.27200
O820        O  0.51220607  0.06826824  0.19829602    -0.71700
H821        H  0.56384709  0.04993501  0.11710939     0.80300
H822        H  0.56132883  0.05759211  0.24314302     0.81300
H823        H  0.88845463  0.46792635  0.20082484     0.83600
H824        H  0.98117223  0.37658317  0.15045684     0.81200
H825        H  0.61269534  0.14997892  0.24313880     0.44200
H826        H  0.51797106  0.12821361  0.26834803     0.43200
H827        H  0.87227095  0.45029360  0.26969125     0.42900
H828        H  0.82071743  0.38001454  0.21431780     0.40800
H829        H  0.89391882  0.32855859  0.11141296     0.43900
H830        H  0.98578951  0.34940688  0.08600837     0.38700
H831        H  0.63362089  0.01839863  0.09446767     0.44800
H832        H  0.65624507  0.10927385  0.12326112     0.41200
H833        H  0.80693342  0.32677471  0.19453306     0.46200
H834        H  0.52239636  0.37735965  0.05739638     0.44900
H835        H  0.68285984  0.15334827  0.15260914     0.45000
H836        H  0.97690853  0.10329156  0.29593360     0.45400
C837        C  0.58436483  0.18099029  0.13607307    -0.11500
C838        C  0.60623814  0.22056895  0.12913886    -0.13000
C839        C  0.76588231  0.37332892  0.12090908    -0.11500
C840        C  0.80669048  0.39476050  0.12653194    -0.13000
C841        C  0.62393527  0.36420195  0.12250911    -0.11500
C842        C  0.60434048  0.38449351  0.12823879    -0.13000
C843        C  0.60520765  0.22053210  0.38032017    -0.11500
C844        C  0.58346880  0.18106044  0.38729015    -0.13000
C845        C  0.76489173  0.37291132  0.37190759    -0.11500
C846        C  0.80569401  0.39468802  0.37765074    -0.13000
C847        C  0.62349205  0.36378853  0.37256531    -0.11500
C848        C  0.60423574  0.38435066  0.37815547    -0.13000
C849        C  0.87652460  0.11609474  0.23410198    -0.11500
C850        C  0.89616664  0.09580928  0.22824419    -0.13000
C851        C  0.89004353  0.25863746  0.23022889    -0.11500
C852        C  0.91152629  0.29815789  0.22339873    -0.13000
C853        C  0.73291122  0.10186951  0.23254860    -0.11500
C854        C  0.69229941  0.07975691  0.22624446    -0.13000
C855        C  0.87561471  0.11502894  0.48396444    -0.11500
C856        C  0.89524283  0.09474579  0.47820605    -0.13000
C857        C  0.91107705  0.29766874  0.47346333    -0.11500
C858        C  0.88977747  0.25818020  0.48031112    -0.13000
C859        C  0.73248438  0.10176353  0.48255387    -0.11500
C860        C  0.69189781  0.07983211  0.47631283    -0.13000
C861        C  0.85300770  0.13845678  0.48670876     0.82000
N862        N  0.80404842  0.11053253  0.48660886    -0.76300
C863        C  0.78316093  0.13177174  0.48611587     0.84500
N864        N  0.81130656  0.18048032  0.48495973    -0.76200
C865        C  0.86019435  0.20834329  0.48494194     0.84600
N866        N  0.88117580  0.18720532  0.48543982    -0.78000
C867        C  0.85400557  0.13942202  0.73674249     0.82000
N868        N  0.88197531  0.18809036  0.73537566    -0.76300
C869        C  0.86078962  0.20886783  0.73462949     0.84500
N870        N  0.81191067  0.18073531  0.73447601    -0.76200
C871        C  0.78396525  0.13209187  0.73574939     0.84600
N872        N  0.80506094  0.11121738  0.73650565    -0.78000
C873        C  0.64555511  0.33972889  0.86979221     0.82000
N874        N  0.61606694  0.29181520  0.87310059    -0.76300
C875        C  0.63577118  0.26961191  0.87393347     0.84500
N876        N  0.68478967  0.29562315  0.87214949    -0.76200
C877        C  0.71425068  0.34350466  0.86890910     0.84600
N878        N  0.69461764  0.36581569  0.86813432    -0.78000
C879        C  0.64566299  0.34001940  0.62002266     0.82000
N880        N  0.61669213  0.29196793  0.62296756    -0.76300
C881        C  0.63695854  0.27025300  0.62367384     0.84500
N882        N  0.68600156  0.29684226  0.62209661    -0.76200
C883        C  0.71495466  0.34484905  0.61920475     0.84600
N884        N  0.69477871  0.36671398  0.61857051    -0.78000
O885        O  0.57280591  0.41787214  0.86659974    -0.73500
O886        O  0.56892797  0.41948830  0.91968416    -0.52400
C887        C  0.58109409  0.40916724  0.88869667     0.80200
O888        O  0.59117452  0.13785749  0.91033859    -0.58100
O889        O  0.51926992  0.09943229  0.89158384    -0.51100
C890        C  0.56311829  0.13681628  0.89704995     0.72200
O891        O  0.64591823  0.08683242  0.95436942    -0.72700
O892        O  0.61111152  0.51346029  0.96818805    -0.53200
C893        C  0.64677983  0.05883421  0.96580376     0.78200
O894        O  0.51692886  0.46718882  0.82178971    -0.57800
O895        O  0.97765872  0.00525873  0.84367493    -0.50900
C896        C  0.99730414  0.48657735  0.81945798     0.74800
Zr897      Zr  0.53221123  0.45270032  0.86515511     2.54700
O898        O  0.60864029  0.49023578  0.82911821    -0.78400
O899        O  0.99260227  0.37228769  0.82634485    -0.91800
Zr900      Zr  0.58856661  0.08118152  0.93113168     2.64700
O901        O  0.66367971  0.11370210  0.89332532    -0.96700
O902        O  0.62387932  0.16023078  0.97141239    -0.78800
O903        O  0.57697699  0.50296978  0.91084893    -0.82200
O904        O  0.54578471  0.03185948  0.88465430    -2.16900
O905        O  0.85149288  0.38799334  0.89975886    -0.65500
O906        O  0.88587480  0.46119710  0.88644929    -0.50100
C907        C  0.85068863  0.41579283  0.88808811     0.73200
O908        O  0.97743646  0.00595117  0.53388817    -0.58500
O909        O  0.51795845  0.46981452  0.51229587    -0.50400
C910        C  0.99701281  0.48707187  0.53646018     0.75000
O911        O  0.92807524  0.06260190  0.98954865    -0.69900
O912        O  0.92871582  0.05769328  0.93634897    -0.48500
C913        C  0.91876429  0.07029355  0.96742824     0.76400
O914        O  0.90312439  0.34060044  0.95004973    -0.65200
O915        O  0.97637619  0.37750395  0.96622338    -0.52400
C916        C  0.93147494  0.34138363  0.96285281     0.74800
Zr917      Zr  0.90765677  0.39430259  0.92474707     2.77500
O918        O  0.82961749  0.35675807  0.95936534    -0.95900
O919        O  0.87800608  0.31663023  0.88318689    -0.76800
Zr920      Zr  0.96481114  0.02372383  0.99081003     2.70100
O921        O  0.88738523  0.48876932  0.52636396    -0.78000
O922        O  0.50382177  0.10267976  0.53010373    -0.97100
Zr923      Zr  0.52890984  0.45909502  0.95365780     2.21500
Zr924      Zr  0.96768424  0.01697368  0.90237077     2.11100
O925        O  0.91927627  0.47265000  0.94532554    -2.45800
O926        O  0.95062059  0.44392816  0.97117014    -0.77800
O927        O  0.95356792  0.43704529  0.88149241    -0.70000
O928        O  0.54246898  0.03858954  0.97443776    -2.30900
O929        O  0.98471814  0.40750983  0.90750797    -2.27200
O930        O  0.51126970  0.06764012  0.94834348    -0.71700
H931        H  0.56319022  0.04982238  0.86731565     0.80300
H932        H  0.56058448  0.05731923  0.49329574     0.81300
H933        H  0.88809717  0.46776591  0.95108190     0.83600
H934        H  0.98046249  0.37589581  0.90067211     0.81200
H935        H  0.60584385  0.15112529  0.99275155     0.44200
H936        H  0.51329098  0.12744535  0.51867284     0.43200
H937        H  0.87223499  0.45250003  0.52071599     0.42900
H938        H  0.82146551  0.38101746  0.96593609     0.40800
H939        H  0.88870788  0.32679040  0.86219950     0.43900
H940        H  0.98126927  0.34756234  0.83852406     0.38700
H941        H  0.63364449  0.01540691  0.84382663     0.44800
H942        H  0.65506072  0.11327676  0.87393827     0.41200
H943        H  0.80580104  0.32801665  0.94418071     0.46200
H944        H  0.52204964  0.37420958  0.80991558     0.44900
H945        H  0.68500012  0.14953929  0.90376292     0.45000
H946        H  0.97795614  0.10130768  0.54719736     0.45400
O947        O  0.57159267  0.41666186  0.61634260    -0.73500
O948        O  0.56865706  0.41934886  0.66950175    -0.52400
C949        C  0.58025594  0.40839542  0.63848515     0.80200
O950        O  0.59284410  0.13786570  0.65914776    -0.58100
O951        O  0.52047573  0.10029518  0.64139540    -0.51100
C952        C  0.56470396  0.13717377  0.64620495     0.72200
O953        O  0.64697517  0.08656447  0.70375212    -0.72700
O954        O  0.61104032  0.51352090  0.71841617    -0.53200
C955        C  0.64762041  0.05864856  0.71544861     0.78200
O956        O  0.51613143  0.46655329  0.57178320    -0.57800
O957        O  0.97808484  0.00540233  0.59357380    -0.50900
C958        C  0.99680517  0.48615943  0.56941844     0.74800
Zr959      Zr  0.53185068  0.45246914  0.61510868     2.54700
O960        O  0.60931712  0.49258285  0.58045845    -0.78400
O961        O  0.99282533  0.37284435  0.57584050    -0.91800
Zr962      Zr  0.58960386  0.08187318  0.68115460     2.64700
O963        O  0.66540761  0.11567111  0.64405444    -0.96700
O964        O  0.62328811  0.16068576  0.72170003    -0.78800
O965        O  0.57687228  0.50279709  0.66066415    -0.82200
O966        O  0.54670921  0.03271142  0.63473972    -2.16900
O967        O  0.85213569  0.38854284  0.64930016    -0.65500
O968        O  0.88669505  0.46207779  0.63637363    -0.50100
C969        C  0.85147035  0.41662796  0.63781127     0.73200
O970        O  0.97721193  0.00612665  0.78402148    -0.58500
O971        O  0.51839525  0.47003189  0.76222682    -0.50400
C972        C  0.99775837  0.48770181  0.78647514     0.75000
O973        O  0.92861531  0.06307535  0.73975253    -0.69900
O974        O  0.92920178  0.05807231  0.68653323    -0.48500
C975        C  0.91944108  0.07086051  0.71762109     0.76400
O976        O  0.90387024  0.34059178  0.69910324    -0.65200
O977        O  0.97665551  0.37820944  0.71630326    -0.52400
C978        C  0.93205403  0.34171603  0.71232660     0.74800
Zr979      Zr  0.90804412  0.39479996  0.67460096     2.77500
O980        O  0.83075618  0.35833217  0.71007038    -0.95900
O981        O  0.87861435  0.31752588  0.63265460    -0.76800
Zr982      Zr  0.96491560  0.02378793  0.74089208     2.70100
O983        O  0.88679995  0.48686428  0.77539965    -0.78000
O984        O  0.50383363  0.10224501  0.78091422    -0.97100
Zr985      Zr  0.52897548  0.45927412  0.70363901     2.21500
Zr986      Zr  0.96789418  0.01713696  0.65231473     2.11100
O987        O  0.91984114  0.47321317  0.69525869    -2.45800
O988        O  0.95101499  0.44431423  0.72106200    -0.77800
O989        O  0.95400550  0.43753876  0.63142069    -0.70000
O990        O  0.54333552  0.03937577  0.72451275    -2.30900
O991        O  0.98509614  0.40803315  0.65750815    -2.27200
O992        O  0.51242786  0.06862518  0.69847239    -0.71700
H993        H  0.56413876  0.05055252  0.61733784     0.80300
H994        H  0.56123810  0.05779813  0.74323100     0.81300
H995        H  0.88868624  0.46838036  0.70099976     0.83600
H996        H  0.98078137  0.37639026  0.65066674     0.81200
H997        H  0.61032367  0.15111211  0.74308875     0.44200
H998        H  0.51851904  0.12807978  0.76869667     0.43200
H999        H  0.87265319  0.45082664  0.76968503     0.42900
H1000       H  0.82098666  0.38085665  0.71466140     0.40800
H1001       H  0.89665698  0.32842064  0.61179879     0.43900
H1002       H  0.98657153  0.34873227  0.58637783     0.38700
H1003       H  0.63486274  0.01492159  0.59539360     0.44800
H1004       H  0.65582248  0.10925722  0.62303734     0.41200
H1005       H  0.80722527  0.32737723  0.69567681     0.46200
H1006       H  0.52404109  0.37680774  0.55825116     0.44900
H1007       H  0.68370568  0.15230178  0.65234865     0.45000
H1008       H  0.97754413  0.10066880  0.79804494     0.45400
C1009       C  0.58507491  0.18149552  0.63629797    -0.11500
C1010       C  0.60673642  0.22100826  0.62940413    -0.13000
C1011       C  0.76601982  0.37381933  0.62114989    -0.11500
C1012       C  0.80681913  0.39533902  0.62677693    -0.13000
C1013       C  0.62397970  0.36417674  0.62243394    -0.11500
C1014       C  0.60454207  0.38456279  0.62797032    -0.13000
C1015       C  0.60503940  0.22060458  0.88017468    -0.11500
C1016       C  0.58325420  0.18121790  0.88730771    -0.13000
C1017       C  0.76522626  0.37218791  0.87104416    -0.11500
C1018       C  0.80597918  0.39406232  0.87692366    -0.13000
C1019       C  0.62451592  0.36458326  0.87236910    -0.11500
C1020       C  0.60542498  0.38537219  0.87811199    -0.13000
C1021       C  0.87680076  0.11626665  0.73407388    -0.11500
C1022       C  0.89625779  0.09582654  0.72826128    -0.13000
C1023       C  0.89021336  0.25861911  0.72997522    -0.11500
C1024       C  0.91155402  0.29808460  0.72313275    -0.13000
C1025       C  0.73327698  0.10176203  0.73211079    -0.11500
C1026       C  0.69264971  0.07968878  0.72587714    -0.13000
C1027       C  0.87539200  0.11503548  0.98392744    -0.11500
C1028       C  0.89511568  0.09482776  0.97806364    -0.13000
C1029       C  0.91083871  0.29775885  0.97380366    -0.11500
C1030       C  0.88945820  0.25827725  0.98068723    -0.13000
C1031       C  0.73223091  0.10183795  0.98271903    -0.11500
C1032       C  0.69171478  0.08002240  0.97640777    -0.13000
C1033       C  0.85277372  0.63868640  0.98729480     0.82000
N1034       N  0.80377480  0.61075372  0.98735633    -0.76300
C1035       C  0.78281883  0.63188297  0.98678057     0.84500
N1036       N  0.81094226  0.68050096  0.98539043    -0.76200
C1037       C  0.85986755  0.70839113  0.98523734     0.84600
N1038       N  0.88090270  0.68733865  0.98579740    -0.78000
C1039       C  0.85349385  0.63871438  0.23648024     0.82000
N1040       N  0.88157706  0.68739349  0.23510979    -0.76300
C1041       C  0.86051252  0.70830952  0.23439531     0.84500
N1042       N  0.81163304  0.68028661  0.23427363    -0.76200
C1043       C  0.78355893  0.63162801  0.23555057     0.84600
N1044       N  0.80454055  0.61062213  0.23629068    -0.78000
C1045       C  0.64519182  0.83940977  0.36983549     0.82000
N1046       N  0.61607299  0.79136219  0.37280563    -0.76300
C1047       C  0.63614401  0.76963115  0.37382699     0.84500
N1048       N  0.68514007  0.79620750  0.37253752    -0.76200
C1049       C  0.71423914  0.84421802  0.36963195     0.84600
N1050       N  0.69425097  0.86609810  0.36869660    -0.78000
C1051       C  0.64551730  0.83928665  0.11939519     0.82000
N1052       N  0.61638329  0.79106243  0.12204609    -0.76300
C1053       C  0.63642983  0.76915649  0.12283950     0.84500
N1054       N  0.68543081  0.79576148  0.12164310    -0.76200
C1055       C  0.71454521  0.84392301  0.11902109     0.84600
N1056       N  0.69456192  0.86593192  0.11830790    -0.78000
O1057       O  0.57157040  0.91655855  0.36633740    -0.73500
O1058       O  0.56869402  0.91920643  0.41947123    -0.52400
C1059       C  0.58018684  0.90818994  0.38844153     0.80200
O1060       O  0.59190690  0.63799720  0.41023495    -0.58100
O1061       O  0.51989416  0.59968924  0.39167660    -0.51100
C1062       C  0.56384743  0.63695505  0.39695183     0.72200
O1063       O  0.64618507  0.58706488  0.45469228    -0.72700
O1064       O  0.61128203  0.01364153  0.46808345    -0.53200
C1065       C  0.64701042  0.55895428  0.46602157     0.78200
O1066       O  0.51622443  0.96632899  0.32168656    -0.57800
O1067       O  0.97765391  0.50526878  0.34373108    -0.50900
C1068       C  0.99734434  0.98678647  0.31952159     0.74800
Zr1069     Zr  0.53208065  0.95261513  0.36512124     2.54700
O1070       O  0.60922633  0.99248461  0.33008955    -0.78400
O1071       O  0.99341813  0.87277064  0.32578817    -0.91800
Zr1072     Zr  0.58889949  0.58147381  0.43146228     2.64700
O1073       O  0.66475312  0.61485539  0.39443944    -0.96700
O1074       O  0.62344469  0.65998992  0.47228773    -0.78800
O1075       O  0.57707033  0.00288783  0.41070443    -0.82200
O1076       O  0.54623466  0.53212372  0.38488712    -2.16900
O1077       O  0.85153894  0.88836619  0.40010468    -0.65500
O1078       O  0.88608384  0.96162241  0.38678504    -0.50100
C1079       C  0.85077399  0.91630249  0.38854577     0.73200
O1080       O  0.97671862  0.50580392  0.03405753    -0.58500
O1081       O  0.51837032  0.96989526  0.01201662    -0.50400
C1082       C  0.99731812  0.98748455  0.03645098     0.75000
O1083       O  0.92826988  0.56269102  0.48992021    -0.69900
O1084       O  0.92818175  0.55711211  0.43672473    -0.48500
C1085       C  0.91861684  0.57008977  0.46782814     0.76400
O1086       O  0.90348468  0.84049965  0.44966291    -0.65200
O1087       O  0.97673909  0.87752712  0.46589889    -0.52400
C1088       C  0.93186017  0.84134287  0.46248391     0.74800
Zr1089     Zr  0.90797768  0.89445283  0.42464916     2.77500
O1090       O  0.83050248  0.85699336  0.45984075    -0.95900
O1091       O  0.87826568  0.81736353  0.38251122    -0.76800
Zr1092     Zr  0.96467251  0.52335460  0.49086744     2.70100
O1093       O  0.88772230  0.98936527  0.02652456    -0.78000
O1094       O  0.50480007  0.60242837  0.03032762    -0.97100
Zr1095     Zr  0.52904102  0.95918712  0.45359575     2.21500
Zr1096     Zr  0.96741907  0.51665619  0.40243886     2.11100
O1097       O  0.91964159  0.97281750  0.44531395    -2.45800
O1098       O  0.95105764  0.94404162  0.47102242    -0.77800
O1099       O  0.95390729  0.93729531  0.38146165    -0.70000
O1100       O  0.54282806  0.53898728  0.47479207    -2.30900
O1101       O  0.98502392  0.90762200  0.40736649    -2.27200
O1102       O  0.51174550  0.56824896  0.44860713    -0.71700
H1103       H  0.56367509  0.55006861  0.36753840     0.80300
H1104       H  0.56053547  0.55713806  0.99353139     0.81300
H1105       H  0.88846036  0.96793671  0.45113233     0.83600
H1106       H  0.98074749  0.87599606  0.40051339     0.81200
H1107       H  0.60350202  0.65075627  0.49328283     0.44200
H1108       H  0.51720452  0.62777705  0.01834042     0.43200
H1109       H  0.87167337  0.95288035  0.02001623     0.42900
H1110       H  0.82017250  0.87902581  0.46436086     0.40800
H1111       H  0.88780807  0.82783358  0.36180932     0.43900
H1112       H  0.98067063  0.84768961  0.33811818     0.38700
H1113       H  0.63403829  0.50768307  0.34325777     0.44800
H1114       H  0.65547229  0.60959903  0.37362946     0.41200
H1115       H  0.80730427  0.82585214  0.44536187     0.46200
H1116       H  0.52490670  0.87645208  0.30889799     0.44900
H1117       H  0.68369968  0.65142682  0.40319121     0.45000
H1118       H  0.97560841  0.60076117  0.04717615     0.45400
O1119       O  0.57229040  0.91713673  0.11628882    -0.73500
O1120       O  0.56924254  0.91957103  0.16940865    -0.52400
C1121       C  0.58087430  0.90869869  0.13838512     0.80200
O1122       O  0.59183762  0.63707328  0.15893269    -0.58100
O1123       O  0.51953574  0.59907048  0.14092581    -0.51100
C1124       C  0.56372475  0.63612134  0.14576370     0.72200
O1125       O  0.64649294  0.58633164  0.20355198    -0.72700
O1126       O  0.61137299  0.01385979  0.21855236    -0.53200
C1127       C  0.64709781  0.55854719  0.21542290     0.78200
O1128       O  0.51658172  0.96671057  0.07157291    -0.57800
O1129       O  0.97810826  0.50594787  0.09374219    -0.50900
C1130       C  0.99702390  0.98650371  0.06943998     0.74800
Zr1131     Zr  0.53233940  0.95273218  0.11496940     2.54700
O1132       O  0.60915507  0.99085949  0.07935043    -0.78400
O1133       O  0.99409706  0.87370162  0.07505222    -0.91800
Zr1134     Zr  0.58876502  0.58128082  0.18108988     2.64700
O1135       O  0.66448133  0.61529467  0.14394146    -0.96700
O1136       O  0.62192481  0.65982804  0.22193903    -0.78800
O1137       O  0.57738732  0.00303108  0.16053205    -0.82200
O1138       O  0.54579978  0.53170487  0.13467845    -2.16900
O1139       O  0.85191676  0.88843164  0.14977543    -0.65500
O1140       O  0.88623798  0.96169369  0.13656459    -0.50100
C1141       C  0.85107269  0.91628425  0.13817595     0.73200
O1142       O  0.97715241  0.50607251  0.28403961    -0.58500
O1143       O  0.51842194  0.96979193  0.26212749    -0.50400
C1144       C  0.99783322  0.98795609  0.28656388     0.75000
O1145       O  0.92831863  0.56260396  0.23940172    -0.69900
O1146       O  0.92883144  0.55753059  0.18618427    -0.48500
C1147       C  0.91906192  0.57029403  0.21725784     0.76400
O1148       O  0.90364310  0.84076762  0.19969014    -0.65200
O1149       O  0.97672235  0.87788446  0.21622805    -0.52400
C1150       C  0.93195001  0.84159885  0.21257023     0.74800
Zr1151     Zr  0.90801711  0.89497678  0.17502980     2.77500
O1152       O  0.83108535  0.85958101  0.21095100    -0.95900
O1153       O  0.87750994  0.81706222  0.13368424    -0.76800
Zr1154     Zr  0.96437069  0.52321591  0.24085915     2.70100
O1155       O  0.88735651  0.98670415  0.27569100    -0.78000
O1156       O  0.50337709  0.60176052  0.28120694    -0.97100
Zr1157     Zr  0.52947665  0.95943458  0.20352337     2.21500
Zr1158     Zr  0.96789560  0.51700375  0.15231045     2.11100
O1159       O  0.91985526  0.97340478  0.19547630    -2.45800
O1160       O  0.95127394  0.94464111  0.22130112    -0.77800
O1161       O  0.95379441  0.93738358  0.13164181    -0.70000
O1162       O  0.54278032  0.53901141  0.22457761    -2.30900
O1163       O  0.98497100  0.90795351  0.15758661    -2.27200
O1164       O  0.51159967  0.56799372  0.19844030    -0.71700
H1165       H  0.56312144  0.54941363  0.11721084     0.80300
H1166       H  0.56077894  0.55751536  0.24325224     0.81300
H1167       H  0.88870688  0.96859183  0.20128233     0.83600
H1168       H  0.98058663  0.87627227  0.15072165     0.81200
H1169       H  0.61147831  0.65023065  0.24310816     0.44200
H1170       H  0.51857009  0.62773734  0.26899180     0.43200
H1171       H  0.87271164  0.95050207  0.26904747     0.42900
H1172       H  0.82047431  0.88101048  0.21427195     0.40800
H1173       H  0.89104156  0.82740564  0.11252974     0.43900
H1174       H  0.98419022  0.84859161  0.08632827     0.38700
H1175       H  0.63378676  0.51282075  0.09508153     0.44800
H1176       H  0.65439580  0.60583099  0.12239556     0.41200
H1177       H  0.80776141  0.82745648  0.19715275     0.46200
H1178       H  0.52301741  0.87553733  0.05892487     0.44900
H1179       H  0.68124047  0.65189226  0.15084036     0.45000
H1180       H  0.97553903  0.60110450  0.29690835     0.45400
C1181       C  0.58412621  0.68032517  0.13560132    -0.11500
C1182       C  0.60595462  0.71980918  0.12855761    -0.13000
C1183       C  0.76551400  0.87292627  0.12136968    -0.11500
C1184       C  0.80629989  0.89469614  0.12715547    -0.13000
C1185       C  0.62405231  0.86379021  0.12202331    -0.11500
C1186       C  0.60495072  0.88459595  0.12777373    -0.13000
C1187       C  0.60573232  0.72054805  0.37985872    -0.11500
C1188       C  0.58406006  0.68121643  0.38701898    -0.13000
C1189       C  0.76519206  0.87322449  0.37194597    -0.11500
C1190       C  0.80596438  0.89489974  0.37769186    -0.13000
C1191       C  0.62365420  0.86367928  0.37219599    -0.11500
C1192       C  0.60430638  0.88418099  0.37783936    -0.13000
C1193       C  0.87620221  0.61545311  0.23373933    -0.11500
C1194       C  0.89574503  0.59509787  0.22788106    -0.13000
C1195       C  0.89004088  0.75817637  0.22987852    -0.11500
C1196       C  0.91141995  0.79780547  0.22323318    -0.13000
C1197       C  0.73284056  0.60145122  0.23195429    -0.11500
C1198       C  0.69220181  0.57956562  0.22578252    -0.13000
C1199       C  0.87556088  0.61522541  0.48440031    -0.11500
C1200       C  0.89511543  0.59482104  0.47852455    -0.13000
C1201       C  0.91126027  0.79774738  0.47346457    -0.11500
C1202       C  0.88987239  0.75834504  0.48047253    -0.13000
C1203       C  0.73246644  0.60208818  0.48304269    -0.11500
C1204       C  0.69193367  0.58013224  0.47667383    -0.13000
C1205       C  0.85297937  0.63874144  0.48723529     0.82000
N1206       N  0.80400160  0.61087447  0.48721804    -0.76300
C1207       C  0.78313675  0.63211613  0.48667673     0.84500
N1208       N  0.81133173  0.68078012  0.48539126    -0.76200
C1209       C  0.86023528  0.70859814  0.48529954     0.84600
N1210       N  0.88118382  0.68744362  0.48583563    -0.78000
C1211       C  0.85350723  0.63888178  0.73652516     0.82000
N1212       N  0.88149593  0.68751433  0.73505298    -0.76300
C1213       C  0.86031925  0.70834265  0.73437367     0.84500
N1214       N  0.81140162  0.68028101  0.73440772    -0.76200
C1215       C  0.78341332  0.63167152  0.73578874     0.84600
N1216       N  0.80451472  0.61075070  0.73647526    -0.78000
C1217       C  0.64552550  0.83977242  0.86984302     0.82000
N1218       N  0.61629397  0.79190761  0.87322315    -0.76300
C1219       C  0.63627257  0.77011711  0.87431708     0.84500
N1220       N  0.68531011  0.79647896  0.87267817    -0.76200
C1221       C  0.71451466  0.84430078  0.86934938     0.84600
N1222       N  0.69461273  0.86621820  0.86833644    -0.78000
C1223       C  0.64549107  0.83947364  0.61942904     0.82000
N1224       N  0.61643163  0.79130953  0.62219025    -0.76300
C1225       C  0.63654730  0.76952191  0.62307059     0.84500
N1226       N  0.68557506  0.79619081  0.62181994    -0.76200
C1227       C  0.71463464  0.84429590  0.61905939     0.84600
N1228       N  0.69456186  0.86618354  0.61827501    -0.78000
O1229       O  0.57225551  0.91719945  0.86606472    -0.73500
O1230       O  0.56905582  0.91948418  0.91918356    -0.52400
C1231       C  0.58078391  0.90872535  0.88816243     0.80200
O1232       O  0.59180175  0.63795653  0.91032055    -0.58100
O1233       O  0.51982991  0.59974264  0.89174832    -0.51100
C1234       C  0.56377410  0.63702740  0.89708846     0.72200
O1235       O  0.64595054  0.58662283  0.95462440    -0.72700
O1236       O  0.61120397  0.01379208  0.96805567    -0.53200
C1237       C  0.64674320  0.55851847  0.96599545     0.78200
O1238       O  0.51651788  0.96663000  0.82150637    -0.57800
O1239       O  0.97795429  0.50553452  0.84371239    -0.50900
C1240       C  0.99693793  0.98624706  0.81940694     0.74800
Zr1241     Zr  0.53207773  0.95259302  0.86490536     2.54700
O1242       O  0.60838351  0.99054537  0.82879751    -0.78400
O1243       O  0.99371454  0.87269565  0.82570562    -0.91800
Zr1244     Zr  0.58875714  0.58133781  0.93147383     2.64700
O1245       O  0.66412473  0.61448811  0.89397241    -0.96700
O1246       O  0.62351613  0.66021857  0.97195578    -0.78800
O1247       O  0.57700599  0.00290766  0.91053704    -0.82200
O1248       O  0.54608392  0.53201881  0.88493420    -2.16900
O1249       O  0.85190790  0.88847085  0.89949234    -0.65500
O1250       O  0.88622583  0.96194315  0.88657441    -0.50100
C1251       C  0.85110361  0.91646001  0.88801235     0.73200
O1252       O  0.97659676  0.50551373  0.53402638    -0.58500
O1253       O  0.51875341  0.97056167  0.51224520    -0.50400
C1254       C  0.99784641  0.98751295  0.53634311     0.75000
O1255       O  0.92836158  0.56289858  0.98971767    -0.69900
O1256       O  0.92807501  0.55708397  0.93651419    -0.48500
C1257       C  0.91864100  0.57020703  0.96761480     0.76400
O1258       O  0.90299176  0.84065159  0.94993923    -0.65200
O1259       O  0.97635998  0.87731953  0.96581783    -0.52400
C1260       C  0.93140441  0.84127387  0.96255301     0.74800
Zr1261     Zr  0.90776671  0.89458764  0.92471771     2.77500
O1262       O  0.82983526  0.85604297  0.95933761    -0.95900
O1263       O  0.87925526  0.81762119  0.88255002    -0.76800
Zr1264     Zr  0.96423591  0.52315088  0.99087271     2.70100
O1265       O  0.88759814  0.98838693  0.52645348    -0.78000
O1266       O  0.50476769  0.60281404  0.53034028    -0.97100
Zr1267     Zr  0.52905649  0.95908053  0.95338952     2.21500
Zr1268     Zr  0.96734470  0.51661870  0.90240996     2.11100
O1269       O  0.91958526  0.97305251  0.94534837    -2.45800
O1270       O  0.95080732  0.94430969  0.97111870    -0.77800
O1271       O  0.95375407  0.93735073  0.88151261    -0.70000
O1272       O  0.54267929  0.53875656  0.97479098    -2.30900
O1273       O  0.98469821  0.90760935  0.90743943    -2.27200
O1274       O  0.51155924  0.56799719  0.94859542    -0.71700
H1275       H  0.56352345  0.54997202  0.86759138     0.80300
H1276       H  0.56072416  0.55741381  0.49351473     0.81300
H1277       H  0.88840912  0.96818121  0.95113561     0.83600
H1278       H  0.98032738  0.87593803  0.90060532     0.81200
H1279       H  0.60771690  0.65073928  0.99338378     0.44200
H1280       H  0.51438577  0.62778590  0.51904440     0.43200
H1281       H  0.87279582  0.95221028  0.52097476     0.42900
H1282       H  0.81805397  0.87642206  0.96259230     0.40800
H1283       H  0.88958354  0.82815979  0.86176118     0.43900
H1284       H  0.98326353  0.84792396  0.83752073     0.38700
H1285       H  0.63403109  0.51365104  0.84413485     0.44800
H1286       H  0.65485671  0.61096133  0.87371194     0.41200
H1287       H  0.80761236  0.82382960  0.94503500     0.46200
H1288       H  0.52145450  0.87256078  0.81085325     0.44900
H1289       H  0.68394411  0.65087992  0.90338343     0.45000
H1290       H  0.97862339  0.60336019  0.54589121     0.45400
O1291       O  0.57197370  0.91698859  0.61613884    -0.73500
O1292       O  0.56909048  0.91956934  0.66926054    -0.52400
C1293       C  0.58056067  0.90853496  0.63822182     0.80200
O1294       O  0.59194484  0.63710332  0.65885981    -0.58100
O1295       O  0.51963880  0.59923664  0.64090256    -0.51100
C1296       C  0.56384796  0.63624024  0.64572146     0.72200
O1297       O  0.64625442  0.58607757  0.70385485    -0.72700
O1298       O  0.61172581  0.01389775  0.71816637    -0.53200
C1299       C  0.64692171  0.55826800  0.71566177     0.78200
O1300       O  0.51747447  0.96792351  0.57177102    -0.57800
O1301       O  0.97777859  0.50542217  0.59369248    -0.50900
C1302       C  0.99754348  0.98655575  0.56932403     0.74800
Zr1303     Zr  0.53266795  0.95336937  0.61510486     2.54700
O1304       O  0.60996012  0.99187350  0.58001304    -0.78400
O1305       O  0.99470064  0.87383502  0.57507414    -0.91800
Zr1306     Zr  0.58896768  0.58133276  0.68106227     2.64700
O1307       O  0.66459021  0.61476130  0.64380345    -0.96700
O1308       O  0.62287371  0.66002612  0.72175450    -0.78800
O1309       O  0.57769576  0.00346501  0.66064507    -0.82200
O1310       O  0.54590045  0.53180631  0.63472569    -2.16900
O1311       O  0.85209970  0.88891060  0.64946361    -0.65500
O1312       O  0.88669495  0.96210469  0.63605391    -0.50100
C1313       C  0.85142241  0.91674130  0.63771375     0.73200
O1314       O  0.97730811  0.50607587  0.78397061    -0.58500
O1315       O  0.51852796  0.97002807  0.76204551    -0.50400
C1316       C  0.99734038  0.98738423  0.78645948     0.75000
O1317       O  0.92885146  0.56313439  0.73944355    -0.69900
O1318       O  0.92906498  0.55782008  0.68624396    -0.48500
C1319       C  0.91942222  0.57070976  0.71732399     0.76400
O1320       O  0.90340199  0.84054723  0.69925813    -0.65200
O1321       O  0.97630207  0.87787921  0.71616365    -0.52400
C1322       C  0.93162138  0.84147647  0.71230476     0.74800
Zr1323     Zr  0.90789489  0.89497786  0.67475523     2.77500
O1324       O  0.83054313  0.85850087  0.71020424    -0.95900
O1325       O  0.87843000  0.81807670  0.63250855    -0.76800
Zr1326     Zr  0.96484647  0.52359198  0.74081932     2.70100
O1327       O  0.88713759  0.98759895  0.77579298    -0.78000
O1328       O  0.50510011  0.60258929  0.78048415    -0.97100
Zr1329     Zr  0.52963481  0.95975874  0.70350623     2.21500
Zr1330     Zr  0.96805519  0.51716452  0.65233289     2.11100
O1331       O  0.91978371  0.97341189  0.69536075    -2.45800
O1332       O  0.95093028  0.94445193  0.72117080    -0.77800
O1333       O  0.95400388  0.93759278  0.63152031    -0.70000
O1334       O  0.54294292  0.53900260  0.72449972    -2.30900
O1335       O  0.98488577  0.90799308  0.65750716    -2.27200
O1336       O  0.51187703  0.56825406  0.69842244    -0.71700
H1337       H  0.56325289  0.54954849  0.61727606     0.80300
H1338       H  0.56092167  0.55747599  0.74318168     0.81300
H1339       H  0.88863829  0.96860378  0.70112199     0.83600
H1340       H  0.98054427  0.87633340  0.65063975     0.81200
H1341       H  0.61166509  0.65043303  0.74300984     0.44200
H1342       H  0.51990709  0.62825142  0.76808531     0.43200
H1343       H  0.87252534  0.95143019  0.76983744     0.42900
H1344       H  0.81962604  0.87967874  0.71356146     0.40800
H1345       H  0.89349439  0.82923967  0.61160456     0.43900
H1346       H  0.98563520  0.84893668  0.58619552     0.38700
H1347       H  0.63427905  0.51140530  0.59548224     0.44800
H1348       H  0.65490302  0.60826377  0.62280580     0.41200
H1349       H  0.80755974  0.82641343  0.69619849     0.46200
H1350       H  0.52178994  0.87411842  0.56033536     0.44900
H1351       H  0.68299482  0.65141028  0.65201731     0.45000
H1352       H  0.97551935  0.60131650  0.79684904     0.45400
C1353       C  0.58426999  0.68052569  0.63562941    -0.11500
C1354       C  0.60611027  0.72010961  0.62870867    -0.13000
C1355       C  0.76572454  0.87332810  0.62111031    -0.11500
C1356       C  0.80665190  0.89518327  0.62667992    -0.13000
C1357       C  0.62389986  0.86379551  0.62190993    -0.11500
C1358       C  0.60461029  0.88439811  0.62759406    -0.13000
C1359       C  0.60577484  0.72102001  0.88041308    -0.11500
C1360       C  0.58401623  0.68150793  0.88737780    -0.13000
C1361       C  0.76556563  0.87317798  0.87129749    -0.11500
C1362       C  0.80639900  0.89493139  0.87695535    -0.13000
C1363       C  0.62417032  0.86415923  0.87204726    -0.11500
C1364       C  0.60496792  0.88477863  0.87757791    -0.13000
C1365       C  0.87633822  0.61570974  0.73379257    -0.11500
C1366       C  0.89600638  0.59546436  0.72796646    -0.13000
C1367       C  0.88975454  0.75812264  0.72970337    -0.11500
C1368       C  0.91109442  0.79768625  0.72297111    -0.13000
C1369       C  0.73264907  0.60141006  0.73229835    -0.11500
C1370       C  0.69198533  0.57939273  0.72612357    -0.13000
C1371       C  0.87546566  0.61524143  0.98433686    -0.11500
C1372       C  0.89513382  0.59492328  0.97832775    -0.13000
C1373       C  0.91078080  0.79756797  0.97342455    -0.11500
C1374       C  0.88942915  0.75812015  0.98036864    -0.13000
C1375       C  0.73215114  0.60173264  0.98311378    -0.11500
C1376       C  0.69163901  0.57969679  0.97667997    -0.13000
loop_ 
_geom_bond_atom_site_label_1 
_geom_bond_atom_site_label_2 
_geom_bond_distance 
_geom_bond_site_symmetry_2 
_ccdc_geom_bond_type 
C1            N2   1.358       .  A
C1            N6   1.357       .  A
C1          C339   1.432       .  S
N2            C3   1.356       .  A
C3            N4   1.355       .  A
C3          C343   1.432       .  S
N4            C5   1.355       .  A
C5            N6   1.356       .  A
C5          C342   1.432       .  S
C7            N8   1.357       .  A
C7           N12   1.358       .  A
C7          C161   1.431       .  S
N8            C9   1.356       .  A
C9           N10   1.354       .  A
C9          C163   1.431       .  S
N10          C11   1.355       .  A
C11          N12   1.356       .  A
C11         C165   1.432       .  S
C13          N14   1.357       .  A
C13          N18   1.357       .  A
C13         C159   1.430       .  S
N14          C15   1.356       .  A
C15          N16   1.355       .  A
C15         C155   1.433       .  S
N16          C17   1.355       .  A
C17          N18   1.356       .  A
C17         C157   1.430       .  S
C19          N20   1.358       .  A
C19          N24   1.357       .  A
C19         C153   1.431       .  S
N20          C21   1.356       .  A
C21          N22   1.355       .  A
C21         C150   1.434       .  S
N22          C23   1.356       .  A
C23          N24   1.356       .  A
C23         C151   1.432       .  S
O25         Zr37   2.440       .  S
O25          C27   1.286       .  A
O26         Zr63   2.417       .  S
O26          C27   1.284       .  A
C27         C160   1.430       .  S
O28         Zr40   2.436       .  S
O28          C30   1.285       .  A
O29        Zr752   2.427   1_455  S
O29          C30   1.285       .  A
C30         C156   1.433       .  S
O31         Zr40   2.433       .  S
O31          C33   1.285       .  A
O32         Zr63   2.424       .  S
O32         C377   1.284       .  A
C33         C172   1.430       .  S
C33         O376   1.284       .  A
O34         Zr37   2.440       .  S
O34         C724   1.288   1_455  A
O35         Zr64   2.415       .  S
O35         C380   1.285   1_545  A
C36         O722   1.288       .  A
C36         O379   1.285       .  A
C36         C112   1.466       .  S
Zr37         O38   2.434       .  S
Zr37        O727   2.436   1_455  S
Zr37         O43   2.374       .  S
Zr37        O388   2.370       .  S
Zr37        O755   2.371   1_455  S
Zr37        O757   2.374   1_455  S
O38         H425   0.990       .  S
O39        Zr725   2.436       .  S
O39          H80   0.990       .  S
O39         H772   0.990       .  S
Zr40         O41   2.435       .  S
Zr40         O42   2.434       .  S
Zr40         O44   2.368       .  S
Zr40         O68   2.370       .  S
Zr40         O70   2.372       .  S
Zr40        O387   2.372       .  S
O41          H82   0.990       .  S
O41          H85   0.990       .  S
O42          H75   0.990       .  S
O43         Zr63   2.379       .  S
O43        Zr384   2.372       .  S
O44        Zr381   2.370   1_545  S
O44        Zr752   2.382   1_455  S
O44          H71   0.966       .  S
O45         Zr57   2.432       .  S
O45          C47   1.284       .  A
O46        Zr408   2.421       .  S
O46          C47   1.284       .  A
C47         C158   1.429       .  S
O48        Zr232   2.443   1_554  S
O48         C394   1.289   1_545  A
O49        Zr235   2.413   1_554  S
O49         C738   1.285   1_455  A
C50         O392   1.288       .  A
C50         O737   1.285       .  A
C50          C98   1.466       .  S
O51         Zr60   2.441       .  S
O51          C53   1.286       .  A
O52         Zr64   2.415       .  S
O52          C53   1.284       .  A
C53         C168   1.430       .  S
O54         Zr57   2.436       .  S
O54          C56   1.286       .  A
O55        Zr751   2.422       .  S
O55          C56   1.284       .  A
C56         C169   1.432       .  S
Zr57         O58   2.436       .  S
Zr57         O59   2.435       .  S
Zr57         O65   2.372       .  S
Zr57         O66   2.369       .  S
Zr57         O69   2.367       .  S
Zr57         O67   2.371       .  S
O58          H78   0.990       .  S
O58          H83   0.990       .  S
O59          H79   0.990       .  S
Zr60        O220   2.441       .  S
Zr60        O577   2.434   1_545  S
Zr60        O922   2.435       .  S
Zr60        O410   2.370   1_545  S
Zr60        O409   2.372   1_545  S
Zr60        O758   2.371       .  S
Zr60        O756   2.371       .  S
O61        Zr576   2.434   1_554  S
O61          H77   0.990       .  S
O62        Zr920   2.435   1_454  S
O62          H76   0.990       .  S
O62         H774   0.990   1_455  S
Zr63        O221   2.414       .  S
Zr63        O743   2.421   1_455  S
Zr63        O754   2.378   1_455  S
Zr63        O412   2.383       .  S
Zr63        O757   2.384   1_455  S
Zr64        O717   2.424       .  S
Zr64        O390   2.424   1_545  S
Zr64        O732   2.381       .  S
Zr64        O409   2.383   1_545  S
Zr64        O411   2.379   1_545  S
Zr64        O758   2.380       .  S
O65        Zr404   2.372       .  S
O65        Zr408   2.384       .  S
O65          H73   0.966       .  S
O66        Zr404   2.370       .  S
O66        Zr751   2.377       .  S
O67        Zr725   2.370       .  S
O67        Zr408   2.380       .  S
O68        Zr748   2.370   1_455  S
O68        Zr407   2.383   1_545  S
O68         H244   0.966       .  S
O69        Zr725   2.375       .  S
O69        Zr751   2.384       .  S
O69          H74   0.966       .  S
O70        Zr748   2.372   1_455  S
O70        Zr752   2.379   1_455  S
H72         O240   0.966       .  S
H81         O382   0.990   1_545  S
H84         O727   0.990   1_455  S
H86         O750   0.990       .  S
O87         Zr99   2.440       .  S
O87          C89   1.286       .  A
O88        Zr125   2.416       .  S
O88          C89   1.284       .  A
C89         C154   1.430       .  S
O90        Zr102   2.440       .  S
O90          C92   1.286       .  A
O91        Zr814   2.423   1_455  S
O91          C92   1.284       .  A
C92         C149   1.433       .  S
O93        Zr102   2.436       .  S
O93          C95   1.286       .  A
O94        Zr125   2.422       .  S
O94         C439   1.284       .  A
C95         C166   1.432       .  S
C95         O438   1.284       .  A
O96         Zr99   2.441       .  S
O96         C786   1.288   1_455  A
O97        Zr126   2.414       .  S
O97         C442   1.285   1_545  A
C98         O784   1.288       .  A
C98         O441   1.285       .  A
Zr99        O100   2.434       .  S
Zr99        O789   2.435   1_455  S
Zr99        O105   2.373       .  S
Zr99        O450   2.369       .  S
Zr99        O817   2.370   1_455  S
Zr99        O819   2.375   1_455  S
O100        H487   0.990       .  S
O101       Zr787   2.436       .  S
O101        H142   0.990       .  S
O101        H834   0.990       .  S
Zr102       O103   2.434       .  S
Zr102       O104   2.434       .  S
Zr102       O106   2.368       .  S
Zr102       O130   2.371       .  S
Zr102       O132   2.370       .  S
Zr102       O449   2.372       .  S
O103        H144   0.990       .  S
O103        H147   0.990       .  S
O104        H137   0.990       .  S
O105       Zr125   2.378       .  S
O105       Zr446   2.371       .  S
O106       Zr443   2.369   1_545  S
O106       Zr814   2.381   1_455  S
O106        H133   0.966       .  S
O107       Zr119   2.436       .  S
O107        C109   1.285       .  A
O108       Zr470   2.423       .  S
O108        C109   1.284       .  A
C109        C152   1.432       .  S
O110       Zr122   2.441       .  S
O110        C456   1.288   1_545  A
O111       Zr125   2.412       .  S
O111        C800   1.285   1_455  A
C112        O454   1.288       .  A
C112        O799   1.285       .  A
O113       Zr122   2.439       .  S
O113        C115   1.286       .  A
O114       Zr126   2.417       .  S
O114        C115   1.284       .  A
C115        C162   1.431       .  S
O116       Zr119   2.436       .  S
O116        C118   1.286       .  A
O117       Zr813   2.419       .  S
O117        C118   1.284       .  A
C118        C164   1.430       .  S
Zr119       O120   2.436       .  S
Zr119       O121   2.434       .  S
Zr119       O127   2.372       .  S
Zr119       O128   2.371       .  S
Zr119       O131   2.369       .  S
Zr119       O129   2.368       .  S
O120        H140   0.990       .  S
O120        H145   0.990       .  S
O121        H141   0.990       .  S
Zr122       O467   2.433   1_545  S
Zr122       O812   2.435       .  S
Zr122       O472   2.369   1_545  S
Zr122       O471   2.372   1_545  S
Zr122       O820   2.373       .  S
Zr122       O818   2.370       .  S
O123       Zr466   2.434       .  S
O123        H139   0.990       .  S
O124       Zr810   2.435   1_455  S
O124        H138   0.990       .  S
O124        H836   0.990   1_455  S
Zr125       O805   2.420   1_455  S
Zr125       O816   2.377   1_455  S
Zr125       O474   2.383       .  S
Zr125       O819   2.384   1_455  S
Zr126       O779   2.423       .  S
Zr126       O452   2.424   1_545  S
Zr126       O794   2.383       .  S
Zr126       O471   2.383   1_545  S
Zr126       O473   2.379   1_545  S
Zr126       O820   2.380       .  S
O127       Zr466   2.373       .  S
O127       Zr470   2.384       .  S
O127        H135   0.966       .  S
O128       Zr466   2.369       .  S
O128       Zr813   2.378       .  S
O129       Zr787   2.371       .  S
O129       Zr470   2.378       .  S
O130       Zr810   2.370   1_455  S
O130       Zr469   2.383   1_545  S
O130        H134   0.966       .  S
O131       Zr787   2.374       .  S
O131       Zr813   2.385       .  S
O131        H136   0.966       .  S
O132       Zr810   2.372   1_455  S
O132       Zr814   2.380   1_455  S
H143        O444   0.990   1_545  S
H146        O789   0.990   1_455  S
H148        O812   0.990       .  S
C149        C150   1.205       .  T
C151        C152   1.204       .  T
C153        C154   1.203       .  T
C155        C156   1.204       .  T
C157        C158   1.202       .  T
C159        C160   1.203       .  T
C161        C162   1.203       .  T
C163        C164   1.203       .  T
C165        C166   1.204       .  T
C167        C173   1.431       .  S
C167        C168   1.203       .  T
C169        C170   1.204       .  T
C170        C177   1.432       .  S
C171        C175   1.431       .  S
C171        C172   1.203       .  T
C173        N174   1.357       .  A
C173        N178   1.358       .  A
N174        C175   1.356       .  A
C175        N176   1.355       .  A
N176        C177   1.355       .  A
C177        N178   1.356       .  A
C179        N180   1.357       .  A
C179        N184   1.358       .  A
C179        C333   1.430       .  S
N180        C181   1.355       .  A
C181        N182   1.355       .  A
C181        C335   1.431       .  S
N182        C183   1.355       .  A
C183        N184   1.356       .  A
C183        C337   1.432       .  S
C185        N186   1.357       .  A
C185        N190   1.357       .  A
C185        C331   1.429       .  S
N186        C187   1.355       .  A
C187        N188   1.355       .  A
C187        C327   1.432       .  S
N188        C189   1.355       .  A
C189        N190   1.355       .  A
C189        C329   1.429       .  S
C191        N192   1.357       .  A
C191        N196   1.357       .  A
C191        C325   1.430       .  S
N192        C193   1.355       .  A
C193        N194   1.356       .  A
C193        C322   1.433       .  S
N194        C195   1.356       .  A
C195        N196   1.356       .  A
C195        C323   1.432       .  S
O197       Zr209   2.439       .  S
O197        C199   1.286       .  A
O198       Zr235   2.417       .  S
O198        C199   1.284       .  A
C199        C332   1.429       .  S
O200       Zr212   2.435       .  S
O200        C202   1.285       .  A
O201       Zr924   2.425   1_455  S
O201        C202   1.285       .  A
C202        C328   1.431       .  S
O203       Zr212   2.433       .  S
O203        C205   1.285       .  A
O204       Zr235   2.423       .  S
O204        C549   1.284       .  A
C205        C344   1.431       .  S
C205        O548   1.284       .  A
O206       Zr209   2.440       .  S
O206        C896   1.288   1_455  A
O207       Zr236   2.415       .  S
O207        C552   1.285   1_545  A
C208        O894   1.289       .  A
C208        O551   1.285       .  A
C208        C284   1.467       .  S
Zr209       O210   2.434       .  S
Zr209       O899   2.435   1_455  S
Zr209       O215   2.375       .  S
Zr209       O560   2.370       .  S
Zr209       O927   2.371   1_455  S
Zr209       O929   2.374   1_455  S
O210        H597   0.990       .  S
O211       Zr897   2.436       .  S
O211        H252   0.990       .  S
O211        H944   0.990       .  S
Zr212       O213   2.435       .  S
Zr212       O214   2.434       .  S
Zr212       O216   2.368       .  S
Zr212       O559   2.372       .  S
Zr212       O240   2.370       .  S
Zr212       O242   2.372       .  S
O213        H254   0.990       .  S
O213        H257   0.990       .  S
O214        H247   0.990       .  S
O215       Zr556   2.372       .  S
O215       Zr235   2.378       .  S
O216       Zr553   2.371   1_545  S
O216       Zr924   2.381   1_455  S
O216        H243   0.966       .  S
O217       Zr229   2.431       .  S
O217        C219   1.284       .  A
O218       Zr580   2.422       .  S
O218        C219   1.284       .  A
C219        C330   1.429       .  S
O220        C566   1.289   1_545  A
O221        C910   1.285   1_455  A
C222        O564   1.288       .  A
C222        O909   1.285       .  A
C222        C270   1.466       .  S
O223       Zr232   2.442       .  S
O223        C225   1.286       .  A
O224       Zr236   2.417       .  S
O224        C225   1.284       .  A
C225        C340   1.432       .  S
O226       Zr229   2.436       .  S
O226        C228   1.286       .  A
O227       Zr923   2.421       .  S
O227        C228   1.284       .  A
C228        C341   1.431       .  S
Zr229       O230   2.436       .  S
Zr229       O231   2.435       .  S
Zr229       O237   2.373       .  S
Zr229       O238   2.369       .  S
Zr229       O241   2.368       .  S
Zr229       O239   2.370       .  S
O230        H250   0.990       .  S
O230        H255   0.990       .  S
O231        H251   0.990       .  S
Zr232       O405   2.434   1_546  S
Zr232       O750   2.434   1_556  S
Zr232       O582   2.370   1_545  S
Zr232       O581   2.372   1_545  S
Zr232       O930   2.372       .  S
Zr232       O928   2.371       .  S
O233       Zr404   2.434       .  S
O233        H249   0.990       .  S
O234       Zr748   2.434   1_455  S
O234        H248   0.990       .  S
O234        H946   0.990   1_455  S
Zr235       O915   2.422   1_455  S
Zr235       O926   2.378   1_455  S
Zr235       O584   2.383       .  S
Zr235       O929   2.384   1_455  S
Zr236       O889   2.424       .  S
Zr236       O562   2.423   1_545  S
Zr236       O904   2.382       .  S
Zr236       O581   2.384   1_545  S
Zr236       O583   2.380   1_545  S
Zr236       O930   2.379       .  S
O237       Zr576   2.373       .  S
O237       Zr580   2.384       .  S
O237        H245   0.966       .  S
O238       Zr576   2.370       .  S
O238       Zr923   2.378       .  S
O239       Zr897   2.371       .  S
O239       Zr580   2.380       .  S
O240       Zr920   2.369   1_455  S
O240       Zr579   2.383   1_545  S
O241       Zr897   2.375       .  S
O241       Zr923   2.383       .  S
O241        H246   0.966       .  S
O242       Zr920   2.372   1_455  S
O242       Zr924   2.379   1_455  S
H253        O554   0.990   1_545  S
H256        O899   0.990   1_455  S
H258        O922   0.990       .  S
O259       Zr271   2.439       .  S
O259        C261   1.286       .  A
O260       Zr297   2.416       .  S
O260        C261   1.284       .  A
C261        C326   1.429       .  S
O262       Zr274   2.441       .  S
O262        C264   1.286       .  A
O263       Zr986   2.421   1_455  S
O263        C264   1.284       .  A
C264        C321   1.432       .  S
O265       Zr274   2.437       .  S
O265        C267   1.286       .  A
O266       Zr297   2.424       .  S
O266        C611   1.284       .  A
C267        C338   1.432       .  S
C267        O610   1.284       .  A
O268       Zr271   2.440       .  S
O268        C958   1.288   1_455  A
O269       Zr298   2.413       .  S
O269        C614   1.285   1_545  A
C270        O956   1.288       .  A
C270        O613   1.284       .  A
Zr271       O272   2.433       .  S
Zr271       O961   2.435   1_455  S
Zr271       O277   2.374       .  S
Zr271       O622   2.370       .  S
Zr271       O989   2.369   1_455  S
Zr271       O991   2.373   1_455  S
O272        H659   0.990       .  S
O273       Zr959   2.436       .  S
O273        H314   0.990       .  S
O273       H1006   0.990       .  S
Zr274       O275   2.435       .  S
Zr274       O276   2.434       .  S
Zr274       O278   2.368       .  S
Zr274       O621   2.371       .  S
Zr274       O302   2.371       .  S
Zr274       O304   2.371       .  S
O275        H316   0.990       .  S
O275        H319   0.990       .  S
O276        H309   0.990       .  S
O277       Zr618   2.371       .  S
O277       Zr297   2.379       .  S
O278       Zr615   2.370   1_545  S
O278       Zr986   2.382   1_455  S
O278        H305   0.966       .  S
O279       Zr291   2.437       .  S
O279        C281   1.285       .  A
O280       Zr642   2.422       .  S
O280        C281   1.284       .  A
C281        C324   1.431       .  S
O282       Zr294   2.441       .  S
O282        C628   1.289   1_545  A
O283       Zr297   2.413       .  S
O283        C972   1.285   1_455  A
C284        O626   1.289       .  A
C284        O971   1.285       .  A
O285       Zr294   2.441       .  S
O285        C287   1.286       .  A
O286       Zr298   2.415       .  S
O286        C287   1.283       .  A
C287        C334   1.430       .  S
O288       Zr291   2.435       .  S
O288        C290   1.285       .  A
O289       Zr985   2.420       .  S
O289        C290   1.284       .  A
C290        C336   1.430       .  S
Zr291       O292   2.436       .  S
Zr291       O293   2.435       .  S
Zr291       O299   2.373       .  S
Zr291       O300   2.370       .  S
Zr291       O303   2.369       .  S
Zr291       O301   2.368       .  S
O292        H312   0.990       .  S
O292        H317   0.990       .  S
O293        H313   0.990       .  S
Zr294       O639   2.435   1_545  S
Zr294       O984   2.434       .  S
Zr294       O644   2.369   1_545  S
Zr294       O643   2.370   1_545  S
Zr294       O992   2.373       .  S
Zr294       O990   2.372       .  S
O295       Zr638   2.434       .  S
O295        H311   0.990       .  S
O296       Zr982   2.435   1_455  S
O296        H310   0.990       .  S
O296       H1008   0.990   1_455  S
Zr297       O977   2.419   1_455  S
Zr297       O988   2.378   1_455  S
Zr297       O646   2.382       .  S
Zr297       O991   2.384   1_455  S
Zr298       O951   2.422       .  S
Zr298       O624   2.424   1_545  S
Zr298       O966   2.381       .  S
Zr298       O643   2.382   1_545  S
Zr298       O645   2.377   1_545  S
Zr298       O992   2.379       .  S
O299       Zr638   2.374       .  S
O299       Zr642   2.384       .  S
O299        H307   0.966       .  S
O300       Zr638   2.369       .  S
O300       Zr985   2.377       .  S
O301       Zr959   2.371       .  S
O301       Zr642   2.379       .  S
O302       Zr982   2.371   1_455  S
O302       Zr641   2.384   1_545  S
O302        H306   0.966       .  S
O303       Zr959   2.375       .  S
O303       Zr985   2.384       .  S
O303        H308   0.966       .  S
O304       Zr982   2.374   1_455  S
O304       Zr986   2.381   1_455  S
H315        O616   0.990   1_545  S
H318        O961   0.990   1_455  S
H320        O984   0.990       .  S
C321        C322   1.204       .  T
C323        C324   1.204       .  T
C325        C326   1.203       .  T
C327        C328   1.204       .  T
C329        C330   1.202       .  T
C331        C332   1.202       .  T
C333        C334   1.203       .  T
C335        C336   1.203       .  T
C337        C338   1.204       .  T
C339        C340   1.204       .  T
C341        C342   1.204       .  T
C343        C344   1.204       .  T
C345        N346   1.358       .  A
C345        N350   1.357       .  A
C345        C683   1.431       .  S
N346        C347   1.356       .  A
C347        N348   1.355       .  A
C347        C687   1.432       .  S
N348        C349   1.355       .  A
C349        N350   1.356       .  A
C349        C686   1.433       .  S
C351        N352   1.357       .  A
C351        N356   1.358       .  A
C351        C505   1.430       .  S
N352        C353   1.355       .  A
C353        N354   1.355       .  A
C353        C507   1.431       .  S
N354        C355   1.355       .  A
C355        N356   1.356       .  A
C355        C509   1.432       .  S
C357        N358   1.357       .  A
C357        N362   1.357       .  A
C357        C503   1.430       .  S
N358        C359   1.355       .  A
C359        N360   1.355       .  A
C359        C499   1.432       .  S
N360        C361   1.355       .  A
C361        N362   1.356       .  A
C361        C501   1.431       .  S
C363        N364   1.357       .  A
C363        N368   1.358       .  A
C363        C497   1.430       .  S
N364        C365   1.355       .  A
C365        N366   1.355       .  A
C365        C494   1.433       .  S
N366        C367   1.356       .  A
C367        N368   1.356       .  A
C367        C495   1.432       .  S
O369       Zr381   2.440       .  S
O369        C371   1.286       .  A
O370       Zr407   2.417       .  S
O370        C371   1.284       .  A
C371        C504   1.430       .  S
O372       Zr384   2.436       .  S
O372        C374   1.285       .  A
O373      Zr1096   2.424   1_455  S
O373        C374   1.284       .  A
C374        C500   1.431       .  S
O375       Zr384   2.435       .  S
O375        C377   1.285       .  A
O376       Zr407   2.423   1_545  S
C377        C516   1.432       .  S
O378       Zr381   2.440       .  S
O378       C1068   1.288   1_455  A
O379       Zr408   2.414       .  S
C380       O1066   1.288       .  A
C380        C456   1.467       .  S
Zr381       O382   2.433       .  S
Zr381      O1071   2.435   1_455  S
Zr381       O387   2.374   1_565  S
Zr381      O1099   2.370   1_455  S
Zr381      O1101   2.374   1_455  S
O383      Zr1069   2.435       .  S
O383        H424   0.990       .  S
O383       H1116   0.990       .  S
Zr384       O385   2.435       .  S
Zr384       O386   2.435       .  S
Zr384       O388   2.369       .  S
Zr384       O412   2.370       .  S
Zr384       O414   2.372       .  S
O385        H426   0.990       .  S
O385        H429   0.990       .  S
O386        H419   0.990       .  S
O387       Zr407   2.379   1_545  S
O388      Zr1096   2.382   1_455  S
O388        H415   0.966       .  S
O389       Zr401   2.434       .  S
O389        C391   1.285       .  A
O390        C391   1.284       .  A
C391        C502   1.431       .  S
O392       Zr576   2.441   1_554  S
O393       Zr579   2.414   1_554  S
O393       C1082   1.285   1_455  A
C394       O1081   1.285       .  A
C394        C442   1.467       .  S
O395       Zr404   2.440       .  S
O395        C397   1.286       .  A
O396       Zr408   2.415       .  S
O396        C397   1.284       .  A
C397        C512   1.430       .  S
O398       Zr401   2.437       .  S
O398        C400   1.286       .  A
O399      Zr1095   2.421       .  S
O399        C400   1.284       .  A
C400        C513   1.432       .  S
Zr401       O402   2.436       .  S
Zr401       O403   2.435       .  S
Zr401       O409   2.371       .  S
Zr401       O410   2.369       .  S
Zr401       O413   2.369       .  S
Zr401       O411   2.371       .  S
O402        H422   0.990       .  S
O402        H427   0.990       .  S
O403        H423   0.990       .  S
Zr404       O564   2.440       .  S
Zr404      O1266   2.435       .  S
Zr404      O1102   2.372       .  S
Zr404      O1100   2.370       .  S
O405        H421   0.990       .  S
O406      Zr1264   2.435   1_454  S
O406        H420   0.990       .  S
O406       H1118   0.990   1_455  S
Zr407       O565   2.414       .  S
Zr407      O1087   2.422   1_455  S
Zr407      O1098   2.378   1_455  S
Zr407      O1101   2.383   1_455  S
Zr408      O1061   2.424       .  S
Zr408      O1076   2.382       .  S
Zr408      O1102   2.380       .  S
O409        H417   0.966       .  S
O410      Zr1095   2.378       .  S
O411      Zr1069   2.371       .  S
O412      Zr1092   2.370   1_455  S
O412        H588   0.966       .  S
O413      Zr1069   2.376       .  S
O413      Zr1095   2.385       .  S
O413        H418   0.966       .  S
O414      Zr1092   2.372   1_455  S
O414      Zr1096   2.381   1_455  S
H416        O584   0.966       .  S
H428       O1071   0.990   1_455  S
H430       O1094   0.990       .  S
O431       Zr443   2.441       .  S
O431        C433   1.286       .  A
O432       Zr469   2.417       .  S
O432        C433   1.284       .  A
C433        C498   1.430       .  S
O434       Zr446   2.436       .  S
O434        C436   1.285       .  A
O435      Zr1158   2.425   1_455  S
O435        C436   1.285       .  A
C436        C493   1.432       .  S
O437       Zr446   2.435       .  S
O437        C439   1.286       .  A
O438       Zr469   2.423   1_545  S
C439        C510   1.432       .  S
O440       Zr443   2.441       .  S
O440       C1130   1.288   1_455  A
O441       Zr470   2.413       .  S
C442       O1128   1.289       .  A
Zr443       O444   2.434       .  S
Zr443      O1133   2.435   1_455  S
Zr443       O449   2.373   1_565  S
Zr443      O1161   2.370   1_455  S
Zr443      O1163   2.375   1_455  S
O445      Zr1131   2.435       .  S
O445        H486   0.990       .  S
O445       H1178   0.990       .  S
Zr446       O447   2.435       .  S
Zr446       O448   2.435       .  S
Zr446       O450   2.368       .  S
Zr446       O474   2.371       .  S
Zr446       O476   2.371       .  S
O447        H488   0.990       .  S
O447        H491   0.990       .  S
O448        H481   0.990       .  S
O449       Zr469   2.379   1_545  S
O450      Zr1158   2.380   1_455  S
O450        H477   0.966       .  S
O451       Zr463   2.437       .  S
O451        C453   1.286       .  A
O452        C453   1.285       .  A
C453        C496   1.432       .  S
O454       Zr466   2.441       .  S
O455       Zr469   2.414       .  S
O455       C1144   1.285   1_455  A
C456       O1143   1.285       .  A
O457       Zr466   2.440       .  S
O457        C459   1.286       .  A
O458       Zr470   2.413       .  S
O458        C459   1.283       .  A
C459        C506   1.429       .  S
O460       Zr463   2.436       .  S
O460        C462   1.286       .  A
O461      Zr1157   2.420       .  S
O461        C462   1.284       .  A
C462        C508   1.430       .  S
Zr463       O464   2.437       .  S
Zr463       O465   2.434       .  S
Zr463       O471   2.372       .  S
Zr463       O472   2.369       .  S
Zr463       O475   2.370       .  S
Zr463       O473   2.370       .  S
O464        H484   0.990       .  S
O464        H489   0.990       .  S
O465        H485   0.990       .  S
Zr466      O1156   2.434       .  S
Zr466      O1164   2.374       .  S
Zr466      O1162   2.370       .  S
O467        H483   0.990       .  S
O468      Zr1154   2.435   1_455  S
O468        H482   0.990       .  S
O468       H1180   0.990   1_455  S
Zr469      O1149   2.422   1_455  S
Zr469      O1160   2.376   1_455  S
Zr469      O1163   2.384   1_455  S
Zr470      O1123   2.424       .  S
Zr470      O1138   2.381       .  S
Zr470      O1164   2.380       .  S
O471        H479   0.966       .  S
O472      Zr1157   2.377       .  S
O473      Zr1131   2.371       .  S
O474      Zr1154   2.370   1_455  S
O474        H478   0.966       .  S
O475      Zr1131   2.376       .  S
O475      Zr1157   2.384       .  S
O475        H480   0.966       .  S
O476      Zr1154   2.373   1_455  S
O476      Zr1158   2.380   1_455  S
H490       O1133   0.990   1_455  S
H492       O1156   0.990       .  S
C493        C494   1.204       .  T
C495        C496   1.204       .  T
C497        C498   1.203       .  T
C499        C500   1.204       .  T
C501        C502   1.203       .  T
C503        C504   1.203       .  T
C505        C506   1.202       .  T
C507        C508   1.203       .  T
C509        C510   1.204       .  T
C511        C517   1.431       .  S
C511        C512   1.203       .  T
C513        C514   1.204       .  T
C514        C521   1.432       .  S
C515        C519   1.432       .  S
C515        C516   1.204       .  T
C517        N518   1.357       .  A
C517        N522   1.357       .  A
N518        C519   1.356       .  A
C519        N520   1.355       .  A
N520        C521   1.355       .  A
C521        N522   1.356       .  A
C523        N524   1.357       .  A
C523        N528   1.358       .  A
C523        C677   1.430       .  S
N524        C525   1.355       .  A
C525        N526   1.355       .  A
C525        C679   1.430       .  S
N526        C527   1.355       .  A
C527        N528   1.356       .  A
C527        C681   1.433       .  S
C529        N530   1.357       .  A
C529        N534   1.357       .  A
C529        C675   1.430       .  S
N530        C531   1.355       .  A
C531        N532   1.355       .  A
C531        C671   1.432       .  S
N532        C533   1.355       .  A
C533        N534   1.356       .  A
C533        C673   1.431       .  S
C535        N536   1.358       .  A
C535        N540   1.357       .  A
C535        C669   1.431       .  S
N536        C537   1.356       .  A
C537        N538   1.355       .  A
C537        C666   1.434       .  S
N538        C539   1.356       .  A
C539        N540   1.356       .  A
C539        C667   1.431       .  S
O541       Zr553   2.439       .  S
O541        C543   1.286       .  A
O542       Zr579   2.417       .  S
O542        C543   1.284       .  A
C543        C676   1.430       .  S
O544       Zr556   2.437       .  S
O544        C546   1.286       .  A
O545      Zr1268   2.424   1_455  S
O545        C546   1.285       .  A
C546        C672   1.432       .  S
O547       Zr556   2.436       .  S
O547        C549   1.286       .  A
O548       Zr579   2.424   1_545  S
C549        C688   1.432       .  S
O550       Zr553   2.440       .  S
O550       C1240   1.288   1_455  A
O551       Zr580   2.414       .  S
C552       O1238   1.288       .  A
C552        C628   1.466       .  S
Zr553       O554   2.434       .  S
Zr553      O1243   2.436   1_455  S
Zr553       O559   2.373   1_565  S
Zr553      O1271   2.370   1_455  S
Zr553      O1273   2.374   1_455  S
O555      Zr1241   2.436       .  S
O555        H596   0.990       .  S
O555       H1288   0.990       .  S
Zr556       O557   2.435       .  S
Zr556       O558   2.435       .  S
Zr556       O560   2.369       .  S
Zr556       O584   2.369       .  S
Zr556       O586   2.372       .  S
O557        H598   0.990       .  S
O557        H601   0.990       .  S
O558        H591   0.990       .  S
O559       Zr579   2.378   1_545  S
O560      Zr1268   2.382   1_455  S
O560        H587   0.966       .  S
O561       Zr573   2.435       .  S
O561        C563   1.285       .  A
O562        C563   1.284       .  A
C563        C674   1.430       .  S
O565       C1254   1.285   1_455  A
C566       O1253   1.285       .  A
C566        C614   1.466       .  S
O567       Zr576   2.440       .  S
O567        C569   1.286       .  A
O568       Zr580   2.416       .  S
O568        C569   1.284       .  A
C569        C684   1.430       .  S
O570       Zr573   2.438       .  S
O570        C572   1.286       .  A
O571      Zr1267   2.423       .  S
O571        C572   1.284       .  A
C572        C685   1.433       .  S
Zr573       O574   2.435       .  S
Zr573       O575   2.435       .  S
Zr573       O581   2.372       .  S
Zr573       O582   2.369       .  S
Zr573       O585   2.369       .  S
Zr573       O583   2.370       .  S
O574        H594   0.990       .  S
O574        H599   0.990       .  S
O575        H595   0.990       .  S
Zr576      O1094   2.435   1_556  S
Zr576      O1274   2.372       .  S
Zr576      O1272   2.370       .  S
O577        H593   0.990       .  S
O578      Zr1092   2.435   1_455  S
O578        H592   0.990       .  S
O578       H1290   0.990   1_455  S
Zr579      O1259   2.423   1_455  S
Zr579      O1270   2.378   1_455  S
Zr579      O1273   2.383   1_455  S
Zr580      O1233   2.426       .  S
Zr580      O1248   2.381       .  S
Zr580      O1274   2.380       .  S
O581        H589   0.966       .  S
O582      Zr1267   2.378       .  S
O583      Zr1241   2.371       .  S
O584      Zr1264   2.370   1_455  S
O585      Zr1241   2.374       .  S
O585      Zr1267   2.383       .  S
O585        H590   0.966       .  S
O586      Zr1264   2.372   1_455  S
O586      Zr1268   2.381   1_455  S
H600       O1243   0.990   1_455  S
H602       O1266   0.990       .  S
O603       Zr615   2.440       .  S
O603        C605   1.286       .  A
O604       Zr641   2.415       .  S
O604        C605   1.284       .  A
C605        C670   1.430       .  S
O606       Zr618   2.439       .  S
O606        C608   1.286       .  A
O607      Zr1330   2.423   1_455  S
O607        C608   1.284       .  A
C608        C665   1.433       .  S
O609       Zr618   2.437       .  S
O609        C611   1.285       .  A
O610       Zr641   2.422   1_545  S
C611        C682   1.433       .  S
O612       Zr615   2.438       .  S
O612       C1302   1.288   1_455  A
O613       Zr642   2.412       .  S
C614       O1300   1.288       .  A
Zr615       O616   2.433       .  S
Zr615      O1305   2.435   1_455  S
Zr615       O621   2.371   1_565  S
Zr615      O1333   2.371   1_455  S
Zr615      O1335   2.375   1_455  S
O617      Zr1303   2.434       .  S
O617        H658   0.990       .  S
O617       H1350   0.990       .  S
Zr618       O619   2.435       .  S
Zr618       O620   2.434       .  S
Zr618       O622   2.369       .  S
Zr618       O646   2.371       .  S
Zr618       O648   2.372       .  S
O619        H660   0.990       .  S
O619        H663   0.990       .  S
O620        H653   0.990       .  S
O621       Zr641   2.378   1_545  S
O622      Zr1330   2.382   1_455  S
O622        H649   0.966       .  S
O623       Zr635   2.433       .  S
O623        C625   1.285       .  A
O624        C625   1.285       .  A
C625        C668   1.430       .  S
O626       Zr638   2.443       .  S
O627       Zr641   2.412       .  S
O627       C1316   1.285   1_455  A
C628       O1315   1.285       .  A
O629       Zr638   2.440       .  S
O629        C631   1.286       .  A
O630       Zr642   2.414       .  S
O630        C631   1.283       .  A
C631        C678   1.429       .  S
O632       Zr635   2.436       .  S
O632        C634   1.286       .  A
O633      Zr1329   2.418       .  S
O633        C634   1.284       .  A
C634        C680   1.430       .  S
Zr635       O636   2.437       .  S
Zr635       O637   2.434       .  S
Zr635       O643   2.371       .  S
Zr635       O644   2.369       .  S
Zr635       O647   2.368       .  S
Zr635       O645   2.369       .  S
O636        H656   0.990       .  S
O636        H661   0.990       .  S
O637        H657   0.990       .  S
Zr638      O1328   2.434       .  S
Zr638      O1336   2.373       .  S
Zr638      O1334   2.369       .  S
O639        H655   0.990       .  S
O640      Zr1326   2.435   1_455  S
O640        H654   0.990       .  S
O640       H1352   0.990   1_455  S
Zr641      O1321   2.421   1_455  S
Zr641      O1332   2.377   1_455  S
Zr641      O1335   2.384   1_455  S
Zr642      O1295   2.424       .  S
Zr642      O1310   2.380       .  S
Zr642      O1336   2.380       .  S
O643        H651   0.966       .  S
O644      Zr1329   2.378       .  S
O645      Zr1303   2.370       .  S
O646      Zr1326   2.371   1_455  S
O646        H650   0.966       .  S
O647      Zr1303   2.374       .  S
O647      Zr1329   2.382       .  S
O647        H652   0.966       .  S
O648      Zr1326   2.374   1_455  S
O648      Zr1330   2.381   1_455  S
H662       O1305   0.990   1_455  S
H664       O1328   0.990       .  S
C665        C666   1.205       .  T
C667        C668   1.203       .  T
C669        C670   1.203       .  T
C671        C672   1.204       .  T
C673        C674   1.203       .  T
C675        C676   1.203       .  T
C677        C678   1.202       .  T
C679        C680   1.203       .  T
C681        C682   1.204       .  T
C683        C684   1.203       .  T
C685        C686   1.204       .  T
C687        C688   1.204       .  T
C689        N690   1.357       .  A
C689        N694   1.357       .  A
C689       C1027   1.430       .  S
N690        C691   1.356       .  A
C691        N692   1.355       .  A
C691       C1031   1.431       .  S
N692        C693   1.355       .  A
C693        N694   1.356       .  A
C693       C1030   1.432       .  S
C695        N696   1.357       .  A
C695        N700   1.358       .  A
C695        C849   1.430       .  S
N696        C697   1.355       .  A
C697        N698   1.355       .  A
C697        C851   1.431       .  S
N698        C699   1.355       .  A
C699        N700   1.356       .  A
C699        C853   1.432       .  S
C701        N702   1.357       .  A
C701        N706   1.357       .  A
C701        C847   1.428       .  S
N702        C703   1.355       .  A
C703        N704   1.355       .  A
C703        C843   1.431       .  S
N704        C705   1.355       .  A
C705        N706   1.356       .  A
C705        C845   1.431       .  S
C707        N708   1.357       .  A
C707        N712   1.358       .  A
C707        C841   1.430       .  S
N708        C709   1.355       .  A
C709        N710   1.355       .  A
C709        C838   1.434       .  S
N710        C711   1.356       .  A
C711        N712   1.356       .  A
C711        C839   1.432       .  S
O713       Zr725   2.439       .  S
O713        C715   1.286       .  A
O714       Zr751   2.413       .  S
O714        C715   1.283       .  A
C715        C848   1.428       .  S
O716       Zr728   2.434       .  S
O716        C718   1.285       .  A
O717        C718   1.284       .  A
C718        C844   1.430       .  S
O719       Zr728   2.433       .  S
O719        C721   1.285       .  A
O720       Zr751   2.424       .  S
O720       C1065   1.285       .  A
C721        C860   1.431       .  S
C721       O1064   1.284       .  A
O722       Zr725   2.442       .  S
O723       Zr752   2.414       .  S
O723       C1068   1.285   1_545  A
C724       O1067   1.285       .  A
C724        C800   1.467       .  S
Zr725       O726   2.434       .  S
Zr725       O731   2.375       .  S
Zr725      O1076   2.370       .  S
O726       H1113   0.990       .  S
O727        H768   0.990       .  S
Zr728       O729   2.435       .  S
Zr728       O730   2.434       .  S
Zr728       O732   2.368       .  S
Zr728      O1075   2.371       .  S
Zr728       O756   2.369       .  S
Zr728       O758   2.372       .  S
O729        H770   0.990       .  S
O729        H773   0.990       .  S
O730        H763   0.990       .  S
O731      Zr1072   2.371       .  S
O731       Zr751   2.379       .  S
O732      Zr1069   2.369   1_545  S
O732        H759   0.966       .  S
O733       Zr745   2.434       .  S
O733        C735   1.285       .  A
O734      Zr1096   2.423       .  S
O734        C735   1.284       .  A
C735        C846   1.430       .  S
O736       Zr920   2.442   1_554  S
O736       C1082   1.289   1_545  A
O737       Zr923   2.413   1_554  S
C738       O1080   1.288       .  A
C738        C786   1.466       .  S
O739       Zr748   2.441       .  S
O739        C741   1.286       .  A
O740       Zr752   2.415       .  S
O740        C741   1.284       .  A
C741        C856   1.430       .  S
O742       Zr745   2.437       .  S
O742        C744   1.286       .  A
O743        C744   1.284       .  A
C744        C857   1.432       .  S
Zr745       O746   2.436       .  S
Zr745       O747   2.435       .  S
Zr745       O753   2.372       .  S
Zr745       O754   2.369       .  S
Zr745       O757   2.369       .  S
Zr745       O755   2.371       .  S
O746        H766   0.990       .  S
O746        H771   0.990       .  S
O747        H767   0.990       .  S
Zr748       O908   2.440       .  S
Zr748      O1265   2.434   1_545  S
Zr748      O1098   2.370   1_545  S
Zr748      O1097   2.372   1_545  S
O749      Zr1264   2.434   1_554  S
O749        H765   0.990       .  S
O750        H764   0.990       .  S
Zr751       O909   2.413       .  S
Zr751      O1100   2.382       .  S
Zr752      O1078   2.423   1_545  S
Zr752      O1097   2.385   1_545  S
Zr752      O1099   2.380   1_545  S
O753      Zr1092   2.372       .  S
O753      Zr1096   2.383       .  S
O753        H761   0.966       .  S
O754      Zr1092   2.370       .  S
O755      Zr1096   2.380       .  S
O756      Zr1095   2.383   1_545  S
O756        H932   0.966       .  S
O757        H762   0.966       .  S
H760        O928   0.966       .  S
H769       O1070   0.990   1_545  S
O775       Zr787   2.439       .  S
O775        C777   1.286       .  A
O776       Zr813   2.415       .  S
O776        C777   1.283       .  A
C777        C842   1.429       .  S
O778       Zr790   2.440       .  S
O778        C780   1.286       .  A
O779        C780   1.285       .  A
C780        C837   1.433       .  S
O781       Zr790   2.437       .  S
O781        C783   1.286       .  A
O782       Zr813   2.426       .  S
O782       C1127   1.285       .  A
C783        C854   1.432       .  S
C783       O1126   1.284       .  A
O784       Zr787   2.440       .  S
O785       Zr814   2.415       .  S
O785       C1130   1.285   1_545  A
C786       O1129   1.284       .  A
Zr787       O788   2.433       .  S
Zr787       O793   2.373       .  S
Zr787      O1138   2.369       .  S
O788       H1175   0.990       .  S
O789        H830   0.990       .  S
Zr790       O791   2.435       .  S
Zr790       O792   2.435       .  S
Zr790       O794   2.369       .  S
Zr790      O1137   2.372       .  S
Zr790       O818   2.371       .  S
Zr790       O820   2.371       .  S
O791        H832   0.990       .  S
O791        H835   0.990       .  S
O792        H825   0.990       .  S
O793      Zr1134   2.371       .  S
O793       Zr813   2.378       .  S
O794      Zr1131   2.369   1_545  S
O794        H821   0.966       .  S
O795       Zr807   2.436       .  S
O795        C797   1.285       .  A
O796      Zr1158   2.423       .  S
O796        C797   1.284       .  A
C797        C840   1.431       .  S
O798       Zr810   2.440       .  S
O798       C1144   1.288   1_545  A
O799       Zr813   2.412       .  S
C800       O1142   1.288       .  A
O801       Zr810   2.440       .  S
O801        C803   1.286       .  A
O802       Zr814   2.416       .  S
O802        C803   1.284       .  A
C803        C850   1.430       .  S
O804       Zr807   2.436       .  S
O804        C806   1.286       .  A
O805        C806   1.284       .  A
C806        C852   1.431       .  S
Zr807       O808   2.437       .  S
Zr807       O809   2.434       .  S
Zr807       O815   2.372       .  S
Zr807       O816   2.370       .  S
Zr807       O819   2.369       .  S
Zr807       O817   2.369       .  S
O808        H828   0.990       .  S
O808        H833   0.990       .  S
O809        H829   0.990       .  S
Zr810      O1155   2.434   1_545  S
Zr810      O1160   2.369   1_545  S
Zr810      O1159   2.373   1_545  S
O811      Zr1154   2.434       .  S
O811        H827   0.990       .  S
O812        H826   0.990       .  S
Zr813      O1162   2.382       .  S
Zr814      O1140   2.422   1_545  S
Zr814      O1159   2.383   1_545  S
Zr814      O1161   2.379   1_545  S
O815      Zr1154   2.373       .  S
O815      Zr1158   2.384       .  S
O815        H823   0.966       .  S
O816      Zr1154   2.369       .  S
O817      Zr1158   2.378       .  S
O818      Zr1157   2.382   1_545  S
O818        H822   0.966       .  S
O819        H824   0.966       .  S
H831       O1132   0.990   1_545  S
C837        C838   1.205       .  T
C839        C840   1.204       .  T
C841        C842   1.202       .  T
C843        C844   1.203       .  T
C845        C846   1.203       .  T
C847        C848   1.201       .  T
C849        C850   1.203       .  T
C851        C852   1.203       .  T
C853        C854   1.204       .  T
C855        C861   1.431       .  S
C855        C856   1.203       .  T
C857        C858   1.204       .  T
C858        C865   1.432       .  S
C859        C863   1.431       .  S
C859        C860   1.203       .  T
C861        N862   1.357       .  A
C861        N866   1.357       .  A
N862        C863   1.356       .  A
C863        N864   1.355       .  A
N864        C865   1.355       .  A
C865        N866   1.356       .  A
C867        N868   1.357       .  A
C867        N872   1.357       .  A
C867       C1021   1.429       .  S
N868        C869   1.355       .  A
C869        N870   1.355       .  A
C869       C1023   1.430       .  S
N870        C871   1.355       .  A
C871        N872   1.356       .  A
C871       C1025   1.432       .  S
C873        N874   1.357       .  A
C873        N878   1.357       .  A
C873       C1019   1.429       .  S
N874        C875   1.355       .  A
C875        N876   1.355       .  A
C875       C1015   1.432       .  S
N876        C877   1.355       .  A
C877        N878   1.356       .  A
C877       C1017   1.431       .  S
C879        N880   1.357       .  A
C879        N884   1.357       .  A
C879       C1013   1.429       .  S
N880        C881   1.355       .  A
C881        N882   1.355       .  A
C881       C1010   1.431       .  S
N882        C883   1.355       .  A
C883        N884   1.356       .  A
C883       C1011   1.431       .  S
O885       Zr897   2.440       .  S
O885        C887   1.286       .  A
O886       Zr923   2.415       .  S
O886        C887   1.284       .  A
C887       C1020   1.429       .  S
O888       Zr900   2.436       .  S
O888        C890   1.285       .  A
O889        C890   1.285       .  A
C890       C1016   1.431       .  S
O891       Zr900   2.433       .  S
O891        C893   1.285       .  A
O892       Zr923   2.423       .  S
O892       C1237   1.284       .  A
C893       C1032   1.431       .  S
C893       O1236   1.284       .  A
O894       Zr897   2.442       .  S
O895       Zr924   2.415       .  S
O895       C1240   1.285   1_545  A
C896       O1239   1.285       .  A
C896        C972   1.467       .  S
Zr897       O898   2.434       .  S
Zr897       O903   2.373       .  S
Zr897      O1248   2.370       .  S
O898       H1285   0.990       .  S
O899        H940   0.990       .  S
Zr900       O901   2.436       .  S
Zr900       O902   2.434       .  S
Zr900       O904   2.368       .  S
Zr900      O1247   2.371       .  S
Zr900       O928   2.370       .  S
Zr900       O930   2.372       .  S
O901        H942   0.990       .  S
O901        H945   0.990       .  S
O902        H935   0.990       .  S
O903      Zr1244   2.371       .  S
O903       Zr923   2.378       .  S
O904      Zr1241   2.370   1_545  S
O904        H931   0.966       .  S
O905       Zr917   2.433       .  S
O905        C907   1.284       .  A
O906      Zr1268   2.424       .  S
O906        C907   1.284       .  A
C907       C1018   1.430       .  S
O908       C1254   1.288   1_545  A
C910       O1252   1.288       .  A
C910        C958   1.466       .  S
O911       Zr920   2.441       .  S
O911        C913   1.286       .  A
O912       Zr924   2.416       .  S
O912        C913   1.284       .  A
C913       C1028   1.430       .  S
O914       Zr917   2.437       .  S
O914        C916   1.286       .  A
O915        C916   1.284       .  A
C916       C1029   1.432       .  S
Zr917       O918   2.437       .  S
Zr917       O919   2.434       .  S
Zr917       O925   2.373       .  S
Zr917       O926   2.369       .  S
Zr917       O929   2.369       .  S
Zr917       O927   2.371       .  S
O918        H938   0.990       .  S
O918        H943   0.990       .  S
O919        H939   0.990       .  S
Zr920      O1093   2.434   1_546  S
Zr920      O1270   2.371   1_545  S
Zr920      O1269   2.373   1_545  S
O921      Zr1092   2.434       .  S
O921        H937   0.990       .  S
O922        H936   0.990       .  S
Zr923      O1272   2.383       .  S
Zr924      O1250   2.422   1_545  S
Zr924      O1269   2.385   1_545  S
Zr924      O1271   2.379   1_545  S
O925      Zr1264   2.371       .  S
O925      Zr1268   2.383       .  S
O925        H933   0.966       .  S
O926      Zr1264   2.370       .  S
O927      Zr1268   2.380       .  S
O928      Zr1267   2.383   1_545  S
O929        H934   0.966       .  S
H941       O1242   0.990   1_545  S
O947       Zr959   2.439       .  S
O947        C949   1.286       .  A
O948       Zr985   2.416       .  S
O948        C949   1.284       .  A
C949       C1014   1.429       .  S
O950       Zr962   2.436       .  S
O950        C952   1.285       .  A
O951        C952   1.284       .  A
C952       C1009   1.431       .  S
O953       Zr962   2.436       .  S
O953        C955   1.285       .  A
O954       Zr985   2.424       .  S
O954       C1299   1.284       .  A
C955       C1026   1.431       .  S
C955       O1298   1.284       .  A
O956       Zr959   2.441       .  S
O957       Zr986   2.416       .  S
O957       C1302   1.285   1_545  A
C958       O1301   1.285       .  A
Zr959       O960   2.433       .  S
Zr959       O965   2.373       .  S
Zr959      O1310   2.368       .  S
O960       H1347   0.990       .  S
O961       H1002   0.990       .  S
Zr962       O963   2.436       .  S
Zr962       O964   2.434       .  S
Zr962       O966   2.367       .  S
Zr962      O1309   2.370       .  S
Zr962       O990   2.371       .  S
Zr962       O992   2.372       .  S
O963       H1004   0.990       .  S
O963       H1007   0.990       .  S
O964        H997   0.990       .  S
O965      Zr1306   2.371       .  S
O965       Zr985   2.378       .  S
O966      Zr1303   2.368   1_545  S
O966        H993   0.966       .  S
O967       Zr979   2.435       .  S
O967        C969   1.285       .  A
O968      Zr1330   2.422       .  S
O968        C969   1.284       .  A
C969       C1012   1.430       .  S
O970       Zr982   2.441       .  S
O970       C1316   1.288   1_545  A
O971       Zr985   2.413       .  S
C972       O1314   1.288       .  A
O973       Zr982   2.438       .  S
O973        C975   1.285       .  A
O974       Zr986   2.416       .  S
O974        C975   1.284       .  A
C975       C1022   1.429       .  S
O976       Zr979   2.435       .  S
O976        C978   1.286       .  A
O977        C978   1.284       .  A
C978       C1024   1.430       .  S
Zr979       O980   2.436       .  S
Zr979       O981   2.435       .  S
Zr979       O987   2.372       .  S
Zr979       O988   2.370       .  S
Zr979       O991   2.368       .  S
Zr979       O989   2.368       .  S
O980       H1000   0.990       .  S
O980       H1005   0.990       .  S
O981       H1001   0.990       .  S
Zr982      O1327   2.434   1_545  S
Zr982      O1332   2.368   1_545  S
Zr982      O1331   2.374   1_545  S
O983      Zr1326   2.434       .  S
O983        H999   0.990       .  S
O984        H998   0.990       .  S
Zr985      O1334   2.382       .  S
Zr986      O1312   2.422   1_545  S
Zr986      O1331   2.384   1_545  S
Zr986      O1333   2.377   1_545  S
O987      Zr1326   2.373       .  S
O987      Zr1330   2.384       .  S
O987        H995   0.966       .  S
O988      Zr1326   2.369       .  S
O989      Zr1330   2.377       .  S
O990      Zr1329   2.382   1_545  S
O990        H994   0.966       .  S
O991        H996   0.966       .  S
H1003      O1304   0.990   1_545  S
C1009      C1010   1.203       .  T
C1011      C1012   1.203       .  T
C1013      C1014   1.202       .  T
C1015      C1016   1.204       .  T
C1017      C1018   1.203       .  T
C1019      C1020   1.202       .  T
C1021      C1022   1.202       .  T
C1023      C1024   1.203       .  T
C1025      C1026   1.204       .  T
C1027      C1028   1.203       .  T
C1029      C1030   1.204       .  T
C1031      C1032   1.203       .  T
C1033      N1034   1.358       .  A
C1033      N1038   1.358       .  A
C1033      C1371   1.431       .  S
N1034      C1035   1.356       .  A
C1035      N1036   1.355       .  A
C1035      C1375   1.432       .  S
N1036      C1037   1.355       .  A
C1037      N1038   1.356       .  A
C1037      C1374   1.433       .  S
C1039      N1040   1.357       .  A
C1039      N1044   1.357       .  A
C1039      C1193   1.429       .  S
N1040      C1041   1.355       .  A
C1041      N1042   1.355       .  A
C1041      C1195   1.431       .  S
N1042      C1043   1.355       .  A
C1043      N1044   1.356       .  A
C1043      C1197   1.432       .  S
C1045      N1046   1.357       .  A
C1045      N1050   1.357       .  A
C1045      C1191   1.429       .  S
N1046      C1047   1.355       .  A
C1047      N1048   1.355       .  A
C1047      C1187   1.431       .  S
N1048      C1049   1.355       .  A
C1049      N1050   1.356       .  A
C1049      C1189   1.431       .  S
C1051      N1052   1.358       .  A
C1051      N1056   1.357       .  A
C1051      C1185   1.431       .  S
N1052      C1053   1.356       .  A
C1053      N1054   1.355       .  A
C1053      C1182   1.433       .  S
N1054      C1055   1.355       .  A
C1055      N1056   1.356       .  A
C1055      C1183   1.431       .  S
O1057     Zr1069   2.438       .  S
O1057      C1059   1.285       .  A
O1058     Zr1095   2.416       .  S
O1058      C1059   1.284       .  A
C1059      C1192   1.429       .  S
O1060     Zr1072   2.435       .  S
O1060      C1062   1.285       .  A
O1061      C1062   1.284       .  A
C1062      C1188   1.431       .  S
O1063     Zr1072   2.432       .  S
O1063      C1065   1.285       .  A
O1064     Zr1095   2.423   1_545  S
C1065      C1204   1.431       .  S
O1066     Zr1069   2.440       .  S
O1067     Zr1096   2.416       .  S
C1068      C1144   1.466       .  S
Zr1069     O1070   2.434       .  S
Zr1069     O1075   2.373   1_565  S
O1071      H1112   0.990       .  S
Zr1072     O1073   2.435       .  S
Zr1072     O1074   2.435       .  S
Zr1072     O1076   2.369       .  S
Zr1072     O1100   2.369       .  S
Zr1072     O1102   2.372       .  S
O1073      H1114   0.990       .  S
O1073      H1117   0.990       .  S
O1074      H1107   0.990       .  S
O1075     Zr1095   2.378   1_545  S
O1076      H1103   0.966       .  S
O1077     Zr1089   2.433       .  S
O1077      C1079   1.285       .  A
O1078      C1079   1.284       .  A
C1079      C1190   1.430       .  S
O1080     Zr1264   2.440   1_554  S
O1081     Zr1267   2.414   1_554  S
C1082      C1130   1.467       .  S
O1083     Zr1092   2.439       .  S
O1083      C1085   1.286       .  A
O1084     Zr1096   2.419       .  S
O1084      C1085   1.284       .  A
C1085      C1200   1.431       .  S
O1086     Zr1089   2.437       .  S
O1086      C1088   1.286       .  A
O1087      C1088   1.284       .  A
C1088      C1201   1.432       .  S
Zr1089     O1090   2.436       .  S
Zr1089     O1091   2.435       .  S
Zr1089     O1097   2.372       .  S
Zr1089     O1098   2.369       .  S
Zr1089     O1101   2.369       .  S
Zr1089     O1099   2.370       .  S
O1090      H1110   0.990       .  S
O1090      H1115   0.990       .  S
O1091      H1111   0.990       .  S
Zr1092     O1252   2.439       .  S
O1093      H1109   0.990       .  S
O1094      H1108   0.990       .  S
Zr1095     O1253   2.413       .  S
O1097      H1105   0.966       .  S
O1100      H1276   0.966       .  S
O1101      H1106   0.966       .  S
H1104      O1272   0.966       .  S
O1119     Zr1131   2.441       .  S
O1119      C1121   1.286       .  A
O1120     Zr1157   2.416       .  S
O1120      C1121   1.284       .  A
C1121      C1186   1.430       .  S
O1122     Zr1134   2.437       .  S
O1122      C1124   1.285       .  A
O1123      C1124   1.285       .  A
C1124      C1181   1.433       .  S
O1125     Zr1134   2.436       .  S
O1125      C1127   1.286       .  A
O1126     Zr1157   2.423   1_545  S
C1127      C1198   1.432       .  S
O1128     Zr1131   2.442       .  S
O1129     Zr1158   2.412       .  S
Zr1131     O1132   2.434       .  S
Zr1131     O1137   2.373   1_565  S
O1133      H1174   0.990       .  S
Zr1134     O1135   2.435       .  S
Zr1134     O1136   2.435       .  S
Zr1134     O1138   2.368       .  S
Zr1134     O1162   2.371       .  S
Zr1134     O1164   2.372       .  S
O1135      H1176   0.990       .  S
O1135      H1179   0.990       .  S
O1136      H1169   0.990       .  S
O1137     Zr1157   2.379   1_545  S
O1138      H1165   0.966       .  S
O1139     Zr1151   2.434       .  S
O1139      C1141   1.285       .  A
O1140      C1141   1.284       .  A
C1141      C1184   1.430       .  S
O1142     Zr1154   2.442       .  S
O1143     Zr1157   2.414       .  S
O1145     Zr1154   2.439       .  S
O1145      C1147   1.286       .  A
O1146     Zr1158   2.412       .  S
O1146      C1147   1.283       .  A
C1147      C1194   1.428       .  S
O1148     Zr1151   2.436       .  S
O1148      C1150   1.286       .  A
O1149      C1150   1.284       .  A
C1150      C1196   1.431       .  S
Zr1151     O1152   2.436       .  S
Zr1151     O1153   2.434       .  S
Zr1151     O1159   2.372       .  S
Zr1151     O1160   2.368       .  S
Zr1151     O1163   2.369       .  S
Zr1151     O1161   2.370       .  S
O1152      H1172   0.990       .  S
O1152      H1177   0.990       .  S
O1153      H1173   0.990       .  S
O1155      H1171   0.990       .  S
O1156      H1170   0.990       .  S
O1159      H1167   0.966       .  S
O1162      H1166   0.966       .  S
O1163      H1168   0.966       .  S
C1181      C1182   1.205       .  T
C1183      C1184   1.203       .  T
C1185      C1186   1.203       .  T
C1187      C1188   1.203       .  T
C1189      C1190   1.203       .  T
C1191      C1192   1.202       .  T
C1193      C1194   1.202       .  T
C1195      C1196   1.203       .  T
C1197      C1198   1.204       .  T
C1199      C1205   1.432       .  S
C1199      C1200   1.203       .  T
C1201      C1202   1.204       .  T
C1202      C1209   1.432       .  S
C1203      C1207   1.432       .  S
C1203      C1204   1.204       .  T
C1205      N1206   1.358       .  A
C1205      N1210   1.358       .  A
N1206      C1207   1.356       .  A
C1207      N1208   1.355       .  A
N1208      C1209   1.355       .  A
C1209      N1210   1.356       .  A
C1211      N1212   1.357       .  A
C1211      N1216   1.358       .  A
C1211      C1365   1.430       .  S
N1212      C1213   1.355       .  A
C1213      N1214   1.355       .  A
C1213      C1367   1.431       .  S
N1214      C1215   1.355       .  A
C1215      N1216   1.356       .  A
C1215      C1369   1.432       .  S
C1217      N1218   1.357       .  A
C1217      N1222   1.357       .  A
C1217      C1363   1.429       .  S
N1218      C1219   1.355       .  A
C1219      N1220   1.355       .  A
C1219      C1359   1.433       .  S
N1220      C1221   1.355       .  A
C1221      N1222   1.356       .  A
C1221      C1361   1.431       .  S
C1223      N1224   1.358       .  A
C1223      N1228   1.357       .  A
C1223      C1357   1.431       .  S
N1224      C1225   1.356       .  A
C1225      N1226   1.356       .  A
C1225      C1354   1.434       .  S
N1226      C1227   1.356       .  A
C1227      N1228   1.356       .  A
C1227      C1355   1.432       .  S
O1229     Zr1241   2.439       .  S
O1229      C1231   1.286       .  A
O1230     Zr1267   2.417       .  S
O1230      C1231   1.284       .  A
C1231      C1364   1.429       .  S
O1232     Zr1244   2.435       .  S
O1232      C1234   1.285       .  A
O1233      C1234   1.285       .  A
C1234      C1360   1.432       .  S
O1235     Zr1244   2.433       .  S
O1235      C1237   1.285       .  A
O1236     Zr1267   2.423   1_545  S
C1237      C1376   1.431       .  S
O1238     Zr1241   2.439       .  S
O1239     Zr1268   2.416       .  S
C1240      C1316   1.466       .  S
Zr1241     O1242   2.434       .  S
Zr1241     O1247   2.374   1_565  S
O1243      H1284   0.990       .  S
Zr1244     O1245   2.435       .  S
Zr1244     O1246   2.435       .  S
Zr1244     O1248   2.368       .  S
Zr1244     O1272   2.371       .  S
Zr1244     O1274   2.372       .  S
O1245      H1286   0.990       .  S
O1245      H1289   0.990       .  S
O1246      H1279   0.990       .  S
O1247     Zr1267   2.379   1_545  S
O1248      H1275   0.966       .  S
O1249     Zr1261   2.434       .  S
O1249      C1251   1.285       .  A
O1250      C1251   1.284       .  A
C1251      C1362   1.430       .  S
C1254      C1302   1.466       .  S
O1255     Zr1264   2.439       .  S
O1255      C1257   1.286       .  A
O1256     Zr1268   2.418       .  S
O1256      C1257   1.284       .  A
C1257      C1372   1.431       .  S
O1258     Zr1261   2.437       .  S
O1258      C1260   1.286       .  A
O1259      C1260   1.284       .  A
C1260      C1373   1.433       .  S
Zr1261     O1262   2.437       .  S
Zr1261     O1263   2.435       .  S
Zr1261     O1269   2.373       .  S
Zr1261     O1270   2.369       .  S
Zr1261     O1273   2.368       .  S
Zr1261     O1271   2.370       .  S
O1262      H1282   0.990       .  S
O1262      H1287   0.990       .  S
O1263      H1283   0.990       .  S
O1265      H1281   0.990       .  S
O1266      H1280   0.990       .  S
O1269      H1277   0.966       .  S
O1273      H1278   0.966       .  S
O1291     Zr1303   2.439       .  S
O1291      C1293   1.286       .  A
O1292     Zr1329   2.418       .  S
O1292      C1293   1.284       .  A
C1293      C1358   1.430       .  S
O1294     Zr1306   2.440       .  S
O1294      C1296   1.286       .  A
O1295      C1296   1.285       .  A
C1296      C1353   1.433       .  S
O1297     Zr1306   2.438       .  S
O1297      C1299   1.286       .  A
O1298     Zr1329   2.423   1_545  S
C1299      C1370   1.432       .  S
O1300     Zr1303   2.440       .  S
O1301     Zr1330   2.413       .  S
Zr1303     O1304   2.433       .  S
Zr1303     O1309   2.372   1_565  S
O1305      H1346   0.990       .  S
Zr1306     O1307   2.435       .  S
Zr1306     O1308   2.435       .  S
Zr1306     O1310   2.367       .  S
Zr1306     O1334   2.370       .  S
Zr1306     O1336   2.372       .  S
O1307      H1348   0.990       .  S
O1307      H1351   0.990       .  S
O1308      H1341   0.990       .  S
O1309     Zr1329   2.377   1_545  S
O1310      H1337   0.966       .  S
O1311     Zr1323   2.435       .  S
O1311      C1313   1.285       .  A
O1312      C1313   1.284       .  A
C1313      C1356   1.431       .  S
O1314     Zr1326   2.442       .  S
O1315     Zr1329   2.411       .  S
O1317     Zr1326   2.440       .  S
O1317      C1319   1.286       .  A
O1318     Zr1330   2.414       .  S
O1318      C1319   1.283       .  A
C1319      C1366   1.429       .  S
O1320     Zr1323   2.436       .  S
O1320      C1322   1.286       .  A
O1321      C1322   1.284       .  A
C1322      C1368   1.431       .  S
Zr1323     O1324   2.437       .  S
Zr1323     O1325   2.434       .  S
Zr1323     O1331   2.371       .  S
Zr1323     O1332   2.370       .  S
Zr1323     O1335   2.370       .  S
Zr1323     O1333   2.368       .  S
O1324      H1344   0.990       .  S
O1324      H1349   0.990       .  S
O1325      H1345   0.990       .  S
O1327      H1343   0.990       .  S
O1328      H1342   0.990       .  S
O1331      H1339   0.966       .  S
O1334      H1338   0.966       .  S
O1335      H1340   0.966       .  S
C1353      C1354   1.205       .  T
C1355      C1356   1.204       .  T
C1357      C1358   1.203       .  T
C1359      C1360   1.204       .  T
C1361      C1362   1.203       .  T
C1363      C1364   1.202       .  T
C1365      C1366   1.203       .  T
C1367      C1368   1.203       .  T
C1369      C1370   1.204       .  T
C1371      C1372   1.203       .  T
C1373      C1374   1.204       .  T
C1375      C1376   1.204       .  T
