geometry optimzed in LAMMPS
_audit_creation_date              2020-12-01 
_audit_creation_method            'lammps2cif' 
_symmetry_space_group_name_H-M    'P1' 
_symmetry_Int_Tables_number       1 
_symmetry_cell_setting            triclinic 
loop_ 
_symmetry_equiv_pos_as_xyz 
  x,y,z 
_cell_length_a                    39.43118194 
_cell_length_b                    39.097187283523276 
_cell_length_c                    38.954009186878906 
_cell_angle_alpha                 89.38939154088906 
_cell_angle_beta                  89.98789830280231 
_cell_angle_gamma                 89.42147683827429 
loop_ 
_atom_site_label 
_atom_site_type_symbol 
_atom_site_fract_x 
_atom_site_fract_y 
_atom_site_fract_z 
_atom_site_charge 
N1          N  0.57418443  0.54079393  0.94469741    -0.05800
N2          N  0.59287242  0.54491567  0.91680588    -0.57900
N3          N  0.54807294  0.55991011  0.02507999    -0.05500
N4          N  0.54947942  0.57812076  0.05333242    -0.60100
N5          N  0.57286884  0.53725453  0.02437781    -0.05100
N6          N  0.59184873  0.53957822  0.05209366    -0.57900
N7          N  0.54984534  0.56404002  0.94563590    -0.04800
N8          N  0.55154824  0.58452273  0.91855594    -0.60400
C9          C  0.57852224  0.57240639  0.90089157     0.96400
C10         C  0.57690007  0.56512433  0.06982662     0.96100
N11         N  0.44666460  0.53320402  0.02176309    -0.06000
N12         N  0.42631515  0.53456249  0.04870022    -0.58500
N13         N  0.47098773  0.56264469  0.94488438    -0.04100
N14         N  0.46688283  0.58544342  0.92008090    -0.59800
N15         N  0.44878249  0.53797518  0.94223119    -0.06000
N16         N  0.42928178  0.54321924  0.91503995    -0.58800
N17         N  0.46940470  0.55752680  0.02324117    -0.03800
N18         N  0.46504846  0.57597440  0.05102043    -0.59800
Mn19       Mn  0.50964413  0.56226472  0.98481133     1.18400
C20         C  0.43810336  0.56145741  0.06658543     0.98500
C21         C  0.44086241  0.57303939  0.90173668     0.99100
N22         N  0.57607010  0.45800692  0.02216555    -0.06000
N23         N  0.59499599  0.45511273  0.04995533    -0.62400
N24         N  0.55685463  0.43583601  0.94220988    -0.04800
N25         N  0.56429994  0.41512503  0.91665889    -0.63000
N26         N  0.57882467  0.46085721  0.94350404    -0.05500
N27         N  0.60154094  0.45793236  0.91889199    -0.62600
N28         N  0.55332079  0.43361163  0.02142591    -0.04400
N29         N  0.55618164  0.41371884  0.04895235    -0.63300
Mn30       Mn  0.57678679  0.49937640  0.98357185     1.10700
C31         C  0.58238341  0.42741933  0.06635220     0.99700
C32         C  0.59219207  0.42935833  0.90243039     0.99700
N33         N  0.45286444  0.45812126  0.93866116    -0.05600
N34         N  0.43477936  0.45705649  0.91027780    -0.60900
N35         N  0.47395439  0.43022753  0.01769456    -0.04900
N36         N  0.46938405  0.40761575  0.04264101    -0.57700
N37         N  0.44943595  0.45327409  0.01767311    -0.06200
N38         N  0.42761204  0.44682186  0.04255044    -0.60500
N39         N  0.47705192  0.43465047  0.93832325    -0.05200
N40         N  0.47571877  0.41696038  0.90960029    -0.57700
Mn41       Mn  0.44809144  0.49551458  0.98002185     1.20200
Mn42       Mn  0.51529239  0.43211596  0.97984645     1.10100
Cl43       Cl  0.51243459  0.49726713  0.98199222    -0.85700
C44         C  0.44914867  0.43127980  0.89249133     0.96700
C45         C  0.44041512  0.41831848  0.05788349     0.96500
N46         N  0.48769378  0.96238935  0.41097503    -0.05800
N47         N  0.48479822  0.93515446  0.39155080    -0.57900
N48         N  0.46183027  0.04101988  0.43270386    -0.05500
N49         N  0.43935367  0.06580464  0.42750940    -0.60100
N50         N  0.48487769  0.04119932  0.40828152    -0.05100
N51         N  0.47870683  0.06619560  0.38605153    -0.57900
N52         N  0.46467575  0.96215589  0.43545227    -0.04800
N53         N  0.44545323  0.93475203  0.43299513    -0.60400
C54         C  0.45833766  0.91823605  0.40543453     0.96400
C55         C  0.45028098  0.08127731  0.39837238     0.96100
N56         N  0.49011970  0.04429317  0.53616468    -0.06000
N57         N  0.48677982  0.07109644  0.55613725    -0.58500
N58         N  0.46791751  0.96436698  0.51625602    -0.04100
N59         N  0.44903640  0.93717956  0.52179772    -0.59800
N60         N  0.49210972  0.96593430  0.53941632    -0.06000
N61         N  0.49007345  0.94013507  0.56136973    -0.58800
N62         N  0.46549509  0.04359139  0.51338300    -0.03800
N63         N  0.44486656  0.07013332  0.51739454    -0.59800
Mn64       Mn  0.46358075  0.00274663  0.47457188     1.18400
C65         C  0.45852385  0.08694245  0.54420992     0.98500
C66         C  0.46313880  0.92248561  0.55005235     0.99100
N67         N  0.56435488  0.04346294  0.40635120    -0.06000
N68         N  0.56561929  0.07121561  0.38672113    -0.62400
N69         N  0.59078550  0.96490884  0.43185406    -0.04800
N70         N  0.61104239  0.93806210  0.42954027    -0.63000
N71         N  0.56683677  0.96399313  0.40843734    -0.05500
N72         N  0.57040703  0.93640276  0.38944693    -0.62600
N73         N  0.58879738  0.04372504  0.42931765    -0.04400
N74         N  0.60722306  0.07148056  0.42580359    -0.63300
Mn75       Mn  0.52597767  0.00280484  0.40711636     1.10700
C76         C  0.59258832  0.08830714  0.39913853     0.99700
C77         C  0.59809733  0.92061644  0.40301022     0.99700
N78         N  0.57125675  0.96666811  0.53631289    -0.05600
N79         N  0.57592447  0.94021068  0.55715286    -0.60900
N80         N  0.59219315  0.04475546  0.50885352    -0.04900
N81         N  0.61275437  0.07096759  0.51137532    -0.57700
N82         N  0.56937105  0.04526895  0.53342082    -0.06200
N83         N  0.57380249  0.07193151  0.55326865    -0.60500
N84         N  0.59381453  0.96630645  0.51145701    -0.05200
N85         N  0.61426645  0.93955418  0.51474309    -0.57700
Mn86       Mn  0.53068651  0.00562744  0.53756357     1.20200
Mn87       Mn  0.59260416  0.00490877  0.47018127     1.10100
Cl88       Cl  0.52815515  0.00403648  0.47234566    -0.85700
C89         C  0.60288725  0.92365301  0.54341816     0.96700
C90         C  0.60092409  0.08759045  0.53915662     0.96500
N91         N  0.98767461  0.55854428  0.42601265    -0.05800
N92         N  0.96291952  0.56382606  0.40370775    -0.57900
N93         N  0.06467933  0.57800545  0.45533875    -0.05500
N94         N  0.09237862  0.59658747  0.45373773    -0.60100
N95         N  0.06554688  0.55393934  0.43200042    -0.05100
N96         N  0.09388760  0.55552645  0.41408153    -0.57900
N97         N  0.98688726  0.58206753  0.44986345    -0.04800
N98         N  0.96154020  0.60371345  0.44454197    -0.60400
C99         C  0.94695021  0.59208959  0.41565830     0.96400
C100        C  0.11025133  0.58228288  0.42789273     0.96100
N101        N  0.05664369  0.55517773  0.55948509    -0.06000
N102        N  0.08220207  0.55755176  0.58122004    -0.58500
N103        N  0.98050557  0.58166476  0.52915655    -0.04100
N104        N  0.95222593  0.60002363  0.52758134    -0.59800
N105        N  0.97833589  0.55809185  0.55337595    -0.06000
N106        N  0.94863492  0.55994218  0.56880338    -0.58800
N107        N  0.05892818  0.57866935  0.53523105    -0.03800
N108        N  0.08609326  0.59745688  0.53979453    -0.59800
Mn109      Mn  0.02284934  0.58147545  0.49248940     1.18400
C110        C  0.10024352  0.58409664  0.56859540     0.98500
C111        C  0.93274149  0.58626961  0.55260652     0.99100
N112        N  0.06197969  0.47394824  0.43292593    -0.06000
N113        N  0.08880064  0.46757978  0.41363522    -0.62400
N114        N  0.98081043  0.45524807  0.45146256    -0.04800
N115        N  0.95310453  0.43723384  0.44656220    -0.63000
N116        N  0.98389215  0.47866993  0.42717233    -0.05500
N117        N  0.95849899  0.47698347  0.40518296    -0.62600
N118        N  0.05882477  0.45019481  0.45684656    -0.04400
N119        N  0.08319093  0.42703105  0.45422404    -0.63300
Mn120      Mn  0.02494103  0.51624502  0.42816941     1.10700
C121        C  0.10173022  0.43829444  0.42732969     0.99700
C122        C  0.93955191  0.45102993  0.41757731     0.99700
N123        N  0.97580271  0.47886299  0.55532022    -0.05600
N124        N  0.94815149  0.47662002  0.57424556    -0.60900
N125        N  0.05416611  0.45082810  0.53732074    -0.04900
N126        N  0.07959439  0.42927649  0.54322698    -0.57700
N127        N  0.05391581  0.47521504  0.56035925    -0.06200
N128        N  0.07926633  0.47100508  0.58215884    -0.60500
N129        N  0.97616611  0.45504342  0.53176711    -0.05200
N130        N  0.94885031  0.43596463  0.53417882    -0.57700
Mn131      Mn  0.01621270  0.51693163  0.55851410     1.20200
Mn132      Mn  0.01742121  0.45148799  0.49433215     1.10100
Cl133      Cl  0.02044729  0.51649840  0.49335815    -0.85700
C134        C  0.93167612  0.44977466  0.56076118     0.96700
C135        C  0.09490954  0.44218490  0.57131495     0.96500
C136        C  0.73032143  0.35339411  0.32775612     0.03400
C137        C  0.71573837  0.36765016  0.29781611    -0.12700
C138        C  0.68909063  0.35122231  0.28080535     0.00900
C139        C  0.67705154  0.32014062  0.29422068    -0.11200
C140        C  0.69004229  0.30605287  0.32488146     0.03400
C141        C  0.71680005  0.32288525  0.34124314    -0.10700
H142        H  0.72481633  0.39176349  0.28786480     0.09000
H143        H  0.65808861  0.30646366  0.28015312     0.06600
H144        H  0.72744596  0.31190164  0.36444228     0.06400
C145        C  0.74305685  0.67564769  0.29951627     0.03400
C146        C  0.72609497  0.65641713  0.27475772    -0.12700
C147        C  0.69466109  0.66727514  0.26139889     0.00900
C148        C  0.68020701  0.69783086  0.27351971    -0.11200
C149        C  0.69646501  0.71721866  0.29860767     0.03400
C150        C  0.72820301  0.70621644  0.31099539    -0.10700
H151        H  0.73717974  0.63252093  0.26639963     0.09000
H152        H  0.65615423  0.70671248  0.26357618     0.06600
H153        H  0.74170590  0.72178314  0.32909680     0.06400
C154        C  0.68648770  0.33438732  0.69243168     0.03400
C155        C  0.71426447  0.35051739  0.67672608    -0.12700
C156        C  0.72541144  0.34080151  0.64385130     0.00900
C157        C  0.70857967  0.31422102  0.62711937    -0.11200
C158        C  0.68180998  0.29677992  0.64301315     0.03400
C159        C  0.67068129  0.30757587  0.67530717    -0.10700
H160        H  0.72773323  0.36987876  0.69055845     0.09000
H161        H  0.71638349  0.30713281  0.60160009     0.06600
H162        H  0.64968033  0.29475095  0.68743982     0.06400
C163        C  0.37008865  0.69651852  0.33433775     0.03400
C164        C  0.38206994  0.68373537  0.30293392    -0.12700
C165        C  0.36959406  0.65304703  0.28936837     0.00900
C166        C  0.34424317  0.63555014  0.30772642    -0.11200
C167        C  0.33114203  0.64829434  0.33866363     0.03400
C168        C  0.34529925  0.67808322  0.35226171    -0.10700
H169        H  0.40038645  0.69833757  0.28850914     0.09000
H170        H  0.33398550  0.61233020  0.29764437     0.06600
H171        H  0.33682226  0.68742588  0.37677590     0.06400
C172        C  0.36886831  0.70887985  0.63685447     0.03400
C173        C  0.33763447  0.69717136  0.62447129    -0.12700
C174        C  0.32169625  0.66859687  0.63920912     0.00900
C175        C  0.33793051  0.65138209  0.66649365    -0.11200
C176        C  0.36863794  0.66312783  0.67981322     0.03400
C177        C  0.38406445  0.69186754  0.66493472    -0.10700
H178        H  0.32526079  0.71103209  0.60377230     0.09000
H179        H  0.32646433  0.62917408  0.67818327     0.06600
H180        H  0.40809673  0.70045562  0.67492683     0.06400
C181        C  0.36248040  0.34215663  0.67694245     0.03400
C182        C  0.33003005  0.35455442  0.66788851    -0.12700
C183        C  0.31165015  0.33973030  0.64100683     0.00900
C184        C  0.32602312  0.31180113  0.62352854    -0.11200
C185        C  0.35821230  0.29868075  0.63233838     0.03400
C186        C  0.37653294  0.31491292  0.65837463    -0.10700
H187        H  0.31835299  0.37462223  0.68278199     0.09000
H188        H  0.31181075  0.29993418  0.60324117     0.06600
H189        H  0.40184359  0.30626145  0.66466821     0.06400
C190        C  0.66375241  0.65071844  0.67717099     0.03400
C191        C  0.69098453  0.63482116  0.66010894    -0.12700
C192        C  0.70690804  0.65022733  0.63169563     0.00900
C193        C  0.69428363  0.68185332  0.61961636    -0.11200
C194        C  0.66631532  0.69802289  0.63525839     0.03400
C195        C  0.65118574  0.68202116  0.66391353    -0.10700
H196        H  0.70056634  0.61061164  0.66965856     0.09000
H197        H  0.70711640  0.69454691  0.59885879     0.06600
H198        H  0.62981484  0.69428662  0.67605473     0.06400
C199        C  0.32222624  0.27371990  0.29898297     0.03400
C200        C  0.29670632  0.29195416  0.31636829    -0.12700
C201        C  0.28226914  0.32179988  0.30197758     0.00900
C202        C  0.29379505  0.33341697  0.26986812    -0.11200
C203        C  0.31957104  0.31600611  0.25208400     0.03400
C204        C  0.33282221  0.28554918  0.26649723    -0.10700
H205        H  0.28906413  0.28371422  0.34177228     0.09000
H206        H  0.28297910  0.35662135  0.25904790     0.06600
H207        H  0.35143140  0.27091975  0.25247579     0.06400
C208        C  0.22004090  0.36001627  0.61137335     0.16300
C209        C  0.18788197  0.35962895  0.59614455    -0.32800
C210        C  0.16854682  0.38986364  0.59687399     0.20700
C211        C  0.18028821  0.41896042  0.61290614     0.02800
C212        C  0.21244534  0.41927323  0.62830962    -0.22500
C213        C  0.23214637  0.38921917  0.62681383     0.12000
S214        S  0.24795407  0.32651912  0.61141967    -0.06200
C215        C  0.27687845  0.35209208  0.63201829    -0.09600
C216        C  0.26468545  0.38489022  0.63871126    -0.26200
S217        S  0.15318241  0.45323626  0.61035250    -0.03400
C218        C  0.12628723  0.42833280  0.58659943    -0.16900
C219        C  0.13761530  0.39513884  0.58157492    -0.14900
H220        H  0.17871112  0.33701220  0.58345688     0.20500
H221        H  0.22198339  0.44214697  0.64023173     0.16500
H222        H  0.27902691  0.40492874  0.65076706     0.19000
H223        H  0.12420398  0.37609004  0.56701736     0.12400
C224        C  0.18320346  0.60557107  0.61417745     0.16300
C225        C  0.21126073  0.60758425  0.63607708    -0.32800
C226        C  0.23767782  0.62931714  0.62614870     0.20700
C227        C  0.23625322  0.64814925  0.59588250     0.02800
C228        C  0.20811061  0.64644102  0.57417221    -0.22500
C229        C  0.18172689  0.62478170  0.58406631     0.12000
S230        S  0.14891397  0.58000959  0.62091811    -0.06200
C231        C  0.13246972  0.59568578  0.58288311    -0.09600
C232        C  0.15258073  0.61935706  0.56610686    -0.26200
S233        S  0.27098948  0.67250988  0.58820019    -0.03400
C234        C  0.28801083  0.65743586  0.62640704    -0.16900
C235        C  0.26706880  0.63462650  0.64385212    -0.14900
H236        H  0.21256874  0.59269186  0.65964481     0.20500
H237        H  0.20692192  0.66117123  0.55049338     0.16500
H238        H  0.14645376  0.63153345  0.54174890     0.19000
H239        H  0.27241159  0.62265728  0.66842116     0.12400
C240        C  0.19727905  0.62029702  0.40998964     0.16300
C241        C  0.22617936  0.64061578  0.40847301    -0.32800
C242        C  0.25239335  0.63025256  0.38659397     0.20700
C243        C  0.25036101  0.60065669  0.36757112     0.02800
C244        C  0.22152035  0.58006224  0.36927436    -0.22500
C245        C  0.19493755  0.59083255  0.39063722     0.12000
S246        S  0.16232817  0.62933163  0.43406695    -0.06200
C247        C  0.14417632  0.59323267  0.41762329    -0.09600
C248        C  0.16432252  0.57518056  0.39483696    -0.26200
S249        S  0.28413060  0.59393557  0.34110240    -0.03400
C250        C  0.30095132  0.63211714  0.35500331    -0.16900
C251        C  0.28115576  0.64819000  0.37975328    -0.14900
H252        H  0.22780247  0.66398154  0.42304138     0.20500
H253        H  0.21950636  0.55722216  0.35395465     0.16500
H254        H  0.15701769  0.55184379  0.38218786     0.19000
H255        H  0.28599285  0.67280877  0.39098241     0.12400
C256        C  0.22008826  0.38522112  0.34435967     0.16300
C257        C  0.20077254  0.41385106  0.35372116    -0.32800
C258        C  0.17541417  0.40907263  0.37839576     0.20700
C259        C  0.16995789  0.37735182  0.39361068     0.02800
C260        C  0.18936490  0.34872092  0.38427598    -0.22500
C261        C  0.21435503  0.35339621  0.35912049     0.12000
S262        S  0.25120838  0.38558607  0.31414600    -0.06200
C263        C  0.25661021  0.34215985  0.32102989    -0.09600
C264        C  0.23514580  0.32856452  0.34584521    -0.26200
S265        S  0.13743404  0.37671538  0.42243338    -0.03400
C266        C  0.13058902  0.41935268  0.41309315    -0.16900
C267        C  0.15281416  0.43333563  0.38946377    -0.14900
H268        H  0.20488357  0.43861374  0.34179649     0.20500
H269        H  0.18482220  0.32381453  0.39570410     0.16500
H270        H  0.23427882  0.30188611  0.35346770     0.19000
H271        H  0.15196580  0.45958863  0.38030970     0.12400
C272        C  0.79083103  0.60441835  0.60789849     0.16300
C273        C  0.82103808  0.58547215  0.60905350    -0.32800
C274        C  0.84632026  0.59408242  0.58542739     0.20700
C275        C  0.84152719  0.61975593  0.56100538     0.02800
C276        C  0.81083703  0.63812907  0.55929015    -0.22500
C277        C  0.78582292  0.63011133  0.58365952     0.12000
S278        S  0.75889110  0.60039731  0.63683896    -0.06200
C279        C  0.73830097  0.63443601  0.61690693    -0.09600
C280        C  0.75560749  0.64705979  0.58827714    -0.26200
S281        S  0.87625576  0.62737305  0.53590317    -0.03400
C282        C  0.89735301  0.59600459  0.55908909    -0.16900
C283        C  0.87819249  0.58023282  0.58429528    -0.14900
H284        H  0.82520086  0.56582794  0.62846079     0.20500
H285        H  0.80715735  0.65866686  0.54074795     0.16500
H286        H  0.74759353  0.66826433  0.57211697     0.19000
H287        H  0.88730869  0.56009325  0.60135109     0.12400
C288        C  0.84769507  0.42592449  0.60314239     0.16300
C289        C  0.81908233  0.42325862  0.62422626    -0.32800
C290        C  0.79785091  0.39522303  0.61929704     0.20700
C291        C  0.80458688  0.37116455  0.59429936     0.02800
C292        C  0.83287396  0.37408759  0.57282645    -0.22500
C293        C  0.85429667  0.40189164  0.57799151     0.12000
S294        S  0.87751775  0.45700017  0.60626432    -0.06200
C295        C  0.89909642  0.43726036  0.57345492    -0.09600
C296        C  0.88372432  0.40839884  0.56068078    -0.26200
S297        S  0.77660382  0.33840264  0.59337268    -0.03400
C298        C  0.75533408  0.35704720  0.62732247    -0.16900
C299        C  0.76957475  0.38751540  0.63808338    -0.14900
H300        H  0.81397656  0.44181966  0.64405930     0.20500
H301        H  0.83832555  0.35515322  0.55344140     0.16500
H302        H  0.89386037  0.39267944  0.54029571     0.19000
H303        H  0.76013102  0.40338930  0.65861254     0.12400
C304        C  0.85945070  0.42861395  0.36691308     0.16300
C305        C  0.83391894  0.42454061  0.34223552    -0.32800
C306        C  0.80737583  0.40211970  0.35021009     0.20700
C307        C  0.80608949  0.38503563  0.38149214     0.02800
C308        C  0.83150578  0.38911681  0.40613580    -0.22500
C309        C  0.85827715  0.41100389  0.39797979     0.12000
S310        S  0.89429809  0.45385728  0.36205313    -0.06200
C311        C  0.90760719  0.43990867  0.40201240    -0.09600
C312        C  0.88587643  0.41729458  0.41816654    -0.26200
S313        S  0.77247825  0.35842890  0.38601289    -0.03400
C314        C  0.75987670  0.36964671  0.34487065    -0.16900
C315        C  0.78101986  0.39347472  0.32910311    -0.14900
H316        H  0.83497612  0.43781731  0.31772738     0.20500
H317        H  0.83075427  0.37534779  0.43039109     0.16500
H318        H  0.89009834  0.40597270  0.44332277     0.19000
H319        H  0.77824685  0.40321474  0.30315795     0.12400
C320        C  0.86593650  0.63811612  0.38649911     0.16300
C321        C  0.83608570  0.65761838  0.38384823    -0.32800
C322        C  0.81767582  0.65558275  0.35320205     0.20700
C323        C  0.82862827  0.63538478  0.32628228     0.02800
C324        C  0.85844244  0.61586628  0.32892021    -0.22500
C325        C  0.87662569  0.61754346  0.35969335     0.12000
S326        S  0.89162240  0.63660291  0.42168499    -0.06200
C327        C  0.91666785  0.60760555  0.40011540    -0.09600
C328        C  0.90568425  0.59977714  0.36746243    -0.26200
S329        S  0.80238894  0.63588759  0.29159616    -0.03400
C330        C  0.77590772  0.66334838  0.31368436    -0.16900
C331        C  0.78750626  0.67166763  0.34618119    -0.14900
H332        H  0.82740694  0.67337979  0.40485899     0.20500
H333        H  0.86684753  0.59972379  0.30809212     0.16500
H334        H  0.91828246  0.58205569  0.35036334     0.19000
H335        H  0.77419414  0.68774496  0.36429857     0.12400
C336        C  0.63333085  0.21756667  0.61308238     0.16300
C337        C  0.61126303  0.19010468  0.60997805    -0.32800
C338        C  0.61900036  0.16571574  0.58517852     0.20700
C339        C  0.64727442  0.16856137  0.56416138     0.02800
C340        C  0.66949341  0.19597908  0.56747061    -0.22500
C341        C  0.66184280  0.22029939  0.59250955     0.12000
S342        S  0.62864533  0.24932670  0.64204368    -0.06200
C343        C  0.66601662  0.26659160  0.62690678    -0.09600
C344        C  0.68073579  0.24824501  0.60028982    -0.26200
S345        S  0.65180290  0.13643911  0.53526255    -0.03400
C346        C  0.61540758  0.11906910  0.55207722    -0.16900
C347        C  0.60067529  0.13722452  0.57846116    -0.14900
H348        H  0.58912048  0.18777593  0.62626381     0.20500
H349        H  0.69177806  0.19818757  0.55137477     0.16500
H350        H  0.70454913  0.25401020  0.58785115     0.19000
H351        H  0.57765856  0.13009854  0.59181283     0.12400
C352        C  0.38291779  0.21724120  0.58167494     0.16300
C353        C  0.38487076  0.18947416  0.55920221    -0.32800
C354        C  0.41083570  0.16522196  0.56481960     0.20700
C355        C  0.43377851  0.16858138  0.59154158     0.02800
C356        C  0.43164620  0.19613866  0.61402495    -0.22500
C357        C  0.40572797  0.22026475  0.60843179     0.12000
S358        S  0.35339520  0.24940483  0.57963386    -0.06200
C359        C  0.37187001  0.26728134  0.61546571    -0.09600
C360        C  0.39954083  0.24852509  0.62786107    -0.26200
S361        S  0.46367076  0.13695156  0.59404479    -0.03400
C362        C  0.44503649  0.11872310  0.55883531    -0.16900
C363        C  0.41714127  0.13644827  0.54589779    -0.14900
H364        H  0.36699459  0.18689682  0.53831335     0.20500
H365        H  0.44945797  0.19868441  0.63498452     0.16500
H366        H  0.41427303  0.25433205  0.65040532     0.19000
H367        H  0.40243829  0.12879641  0.52384557     0.12400
C368        C  0.35553355  0.19492206  0.35000901     0.16300
C369        C  0.36060782  0.16749944  0.37296446    -0.32800
C370        C  0.39150747  0.14953169  0.37103539     0.20700
C371        C  0.41615492  0.15832099  0.34719897     0.02800
C372        C  0.41114720  0.18586043  0.32445460    -0.22500
C373        C  0.38033262  0.20388871  0.32649514     0.12000
S374        S  0.32000242  0.22013534  0.34825171    -0.06200
C375        C  0.33872804  0.24329784  0.31542458    -0.09600
C376        C  0.37099762  0.23155750  0.30677794    -0.26200
S377        S  0.45164898  0.13304113  0.34849641    -0.03400
C378        C  0.43324422  0.11059734  0.38174416    -0.16900
C379        C  0.40128515  0.12220852  0.39112597    -0.14900
H380        H  0.34136937  0.16051890  0.39152881     0.20500
H381        H  0.43041688  0.19291436  0.30594736     0.16500
H382        H  0.38736991  0.24295254  0.28762604     0.19000
H383        H  0.38594523  0.11107991  0.41133873     0.12400
C384        C  0.61225779  0.17603829  0.35953521     0.16300
C385        C  0.61317505  0.20639773  0.34015929    -0.32800
C386        C  0.64038237  0.22850717  0.34573359     0.20700
C387        C  0.66534460  0.22096730  0.36969420     0.02800
C388        C  0.66413160  0.19094455  0.38953492    -0.22500
C389        C  0.63715040  0.16867885  0.38373075     0.12000
S390        S  0.58232453  0.14502315  0.35554471    -0.06000
C391        C  0.60370879  0.12196146  0.38675505    -0.09600
C392        C  0.63223680  0.13777485  0.39958988    -0.26200
S393        S  0.69677599  0.25046824  0.37160082    -0.03400
C394        C  0.67630466  0.27354018  0.33948614    -0.16900
C395        C  0.64624794  0.25862331  0.32865474    -0.14900
H396        H  0.59389681  0.21222828  0.32112360     0.20500
H397        H  0.68369491  0.18488634  0.40820429     0.16500
H398        H  0.64876044  0.12702252  0.41921313     0.19000
H399        H  0.62918917  0.26890772  0.30934762     0.12400
C400        C  0.40054400  0.78606138  0.58430720     0.16300
C401        C  0.40513482  0.81178754  0.55961630    -0.32800
C402        C  0.42481153  0.83979488  0.56877024     0.20700
C403        C  0.43992276  0.84185887  0.60083589     0.02800
C404        C  0.43533355  0.81602635  0.62558244    -0.22500
C405        C  0.41506859  0.78823115  0.61659812     0.12000
S406        S  0.37616535  0.75100814  0.57855436    -0.06200
C407        C  0.38478756  0.73916457  0.62049551    -0.09600
C408        C  0.40624814  0.76132952  0.63748465    -0.26200
S409        S  0.46313277  0.87794767  0.60664110    -0.03400
C410        C  0.45165524  0.89046699  0.56570650    -0.16900
C411        C  0.43125854  0.86774891  0.54857831    -0.14900
H412        H  0.39337081  0.81032659  0.53455831     0.20500
H413        H  0.44664743  0.81774095  0.65082634     0.16500
H414        H  0.41400616  0.75874552  0.66404278     0.19000
H415        H  0.42188212  0.87137644  0.52264255     0.12400
C416        C  0.64113047  0.83550136  0.56353354     0.16300
C417        C  0.65781608  0.80375880  0.56264072    -0.32800
C418        C  0.65132808  0.78050231  0.58942207     0.20700
C419        C  0.62943428  0.78849053  0.61597991     0.02800
C420        C  0.61254387  0.82014998  0.61680822    -0.22500
C421        C  0.61886523  0.84334770  0.58994410     0.12000
S422        S  0.64508898  0.86694805  0.53314742    -0.06200
C423        C  0.61600303  0.89064020  0.55601392    -0.09600
C424        C  0.60433286  0.87503176  0.58575359    -0.26200
S425        S  0.62567555  0.75701710  0.64627230    -0.03400
C426        C  0.65410463  0.73241115  0.62308311    -0.16900
C427        C  0.66519986  0.74847144  0.59305089    -0.14900
H428        H  0.67503340  0.79742726  0.54194419     0.20500
H429        H  0.59519601  0.82639226  0.63741937     0.16500
H430        H  0.58571683  0.88599270  0.60299449     0.19000
H431        H  0.68254317  0.73779729  0.57445830     0.12400
C432        C  0.64511084  0.79757874  0.32322113     0.16300
C433        C  0.62238285  0.82520200  0.32475029    -0.32800
C434        C  0.62318606  0.84541072  0.35415059     0.20700
C435        C  0.64557578  0.83842088  0.38086786     0.02800
C436        C  0.66796840  0.81050632  0.37951473    -0.22500
C437        C  0.66721550  0.79037346  0.35003955     0.12000
S438        S  0.64840724  0.77033814  0.28963942    -0.06200
C439        C  0.67987308  0.74857623  0.31197821    -0.09600
C440        C  0.68711336  0.76230923  0.34385750    -0.26200
S441        S  0.64379455  0.86693343  0.41354299    -0.03400
C442        C  0.61264701  0.88846175  0.39085180    -0.16900
C443        C  0.60387435  0.87398781  0.35993464    -0.14900
H444        H  0.60510190  0.83090475  0.30380264     0.20500
H445        H  0.68548986  0.80498610  0.40030464     0.16500
H446        H  0.70537152  0.75205322  0.36207206     0.19000
H447        H  0.58518275  0.88439493  0.34221629     0.12400
C448        C  0.38779238  0.78467430  0.37452308     0.16300
C449        C  0.38649601  0.81548310  0.39263924    -0.32800
C450        C  0.41345316  0.83824965  0.38816931     0.20700
C451        C  0.44033128  0.83071045  0.36645305     0.02800
C452        C  0.44170285  0.79982836  0.34857307    -0.22500
C453        C  0.41485618  0.77702396  0.35317497     0.12000
S454        S  0.35756194  0.75387325  0.37610066    -0.06200
C455        C  0.38160817  0.73006563  0.34767467    -0.09600
C456        C  0.41161260  0.74580591  0.33788243    -0.26200
S457        S  0.47036345  0.86168626  0.36408553    -0.03400
C458        C  0.44677712  0.88493726  0.39300600    -0.16900
C459        C  0.41709427  0.86937082  0.40368775    -0.14900
H460        H  0.36542836  0.82143044  0.40945979     0.20500
H461        H  0.46275855  0.79387402  0.33173534     0.16500
H462        H  0.43032869  0.73513413  0.32062174     0.19000
H463        H  0.39922071  0.88020853  0.42177352     0.12400
C464        C  0.60539412  0.38834922  0.15404450     0.16300
C465        C  0.60696656  0.36994035  0.18506174    -0.32800
C466        C  0.63599206  0.37378462  0.20543465     0.20700
C467        C  0.66217711  0.39506906  0.19554708     0.02800
C468        C  0.66035409  0.41395756  0.16486952    -0.22500
C469        C  0.63144106  0.41002150  0.14443156     0.12000
S470        S  0.57313046  0.38614582  0.12487474    -0.06200
C471        C  0.59499912  0.41485880  0.09965717    -0.09600
C472        C  0.62543878  0.42555585  0.11339600    -0.26200
S473        S  0.69567049  0.39517357  0.22322603    -0.03400
C474        C  0.67430867  0.36607614  0.24870370    -0.16900
C475        C  0.64257885  0.35741191  0.23594608    -0.14900
H476        H  0.58673838  0.35294808  0.19271053     0.20500
H477        H  0.68078913  0.43060975  0.15702341     0.16500
H478        H  0.64252798  0.44338998  0.10106246     0.19000
H479        H  0.62493569  0.34011597  0.24815235     0.12400
C480        C  0.60139221  0.60873232  0.15308698     0.16300
C481        C  0.60434931  0.63082084  0.18089658    -0.32800
C482        C  0.63534960  0.63084519  0.19843682     0.20700
C483        C  0.66194013  0.60946650  0.18918631     0.02800
C484        C  0.65868032  0.58665469  0.16204438    -0.22500
C485        C  0.62794769  0.58704668  0.14410986     0.12000
S486        S  0.56736640  0.60755935  0.12615738    -0.06200
C487        C  0.58944745  0.57784045  0.10250133    -0.09600
C488        C  0.62099825  0.56882898  0.11533154    -0.26200
S489        S  0.69807818  0.61503343  0.21216890    -0.03400
C490        C  0.67736068  0.64681932  0.23472182    -0.16900
C491        C  0.64380153  0.65196529  0.22469472    -0.14900
H492        H  0.58389531  0.64815271  0.18772006     0.20500
H493        H  0.67960192  0.57025558  0.15442250     0.16500
H494        H  0.63857134  0.55117843  0.10329049     0.19000
H495        H  0.62617988  0.67025761  0.23549402     0.12400
C496        C  0.39644464  0.58160736  0.15303834     0.16300
C497        C  0.37672139  0.58270533  0.18295725    -0.32800
C498        C  0.38448063  0.60774950  0.20722676     0.20700
C499        C  0.41066756  0.63051057  0.20201945     0.02800
C500        C  0.43032508  0.62949705  0.17216590    -0.22500
C501        C  0.42254122  0.60461752  0.14790531     0.12000
S502        S  0.39142340  0.55317306  0.12041441    -0.06200
C503        C  0.42476737  0.57273232  0.09978901    -0.09600
C504        C  0.43882569  0.59967305  0.11740813    -0.26200
S505        S  0.41596602  0.65889118  0.23433929    -0.03400
C506        C  0.38221473  0.64029873  0.25556726    -0.16900
C507        C  0.36806245  0.61317698  0.23769501    -0.14900
H508        H  0.35623843  0.56489468  0.18711942     0.20500
H509        H  0.45078282  0.64734676  0.16800612     0.16500
H510        H  0.46004713  0.61473187  0.10847042     0.19000
H511        H  0.34658371  0.59819344  0.24578420     0.12400
C512        C  0.40779322  0.36338985  0.13262257     0.16300
C513        C  0.40288187  0.33888772  0.15858269    -0.32800
C514        C  0.37307325  0.34129222  0.17806612     0.20700
C515        C  0.34911460  0.36671985  0.17182699     0.02800
C516        C  0.35398235  0.39125901  0.14588515    -0.22500
C517        C  0.38391248  0.38904466  0.12659439     0.12000
S518        S  0.44231140  0.36497444  0.10624507    -0.06200
C519        C  0.42436055  0.40059573  0.08694367    -0.09600
C520        C  0.39337465  0.41060866  0.10047476    -0.26200
S521        S  0.31530612  0.36580537  0.19898751    -0.03400
C522        C  0.33378029  0.33099692  0.21979286    -0.16900
C523        C  0.36449478  0.32075622  0.20532038    -0.14900
H524        H  0.42163129  0.31902993  0.16360760     0.20500
H525        H  0.33543592  0.41138438  0.14117841     0.16500
H526        H  0.37842537  0.43228993  0.09145566     0.19000
H527        H  0.38080000  0.30038502  0.21482692     0.12400
C528        C  0.59712552  0.61767395  0.81520652     0.16300
C529        C  0.59846480  0.64009774  0.78692379    -0.32800
C530        C  0.62044673  0.63158589  0.75994548     0.20700
C531        C  0.63989361  0.60193694  0.76095010     0.02800
C532        C  0.63858911  0.57946973  0.78919493    -0.22500
C533        C  0.61693316  0.58816558  0.81635143     0.12000
S534        S  0.57231413  0.62357232  0.85058527    -0.06200
C535        C  0.58915608  0.58615104  0.86733008    -0.09600
C536        C  0.61256111  0.56998609  0.84630722    -0.26200
S537        S  0.66531124  0.59660305  0.72608738    -0.03400
C538        C  0.65014379  0.63516241  0.70964019    -0.16900
C539        C  0.62609048  0.65067950  0.73078569    -0.14900
H540        H  0.58327126  0.66332113  0.78612881     0.20500
H541        H  0.65405889  0.55643341  0.79012986     0.16500
H542        H  0.62548571  0.54613612  0.85250292     0.19000
H543        H  0.61369099  0.67502823  0.72599472     0.12400
C544        C  0.64459640  0.35114016  0.78019232     0.16300
C545        C  0.62424135  0.35026878  0.80960240    -0.32800
C546        C  0.62379463  0.37934717  0.83022937     0.20700
C547        C  0.64333064  0.40769526  0.82234443     0.02800
C548        C  0.66370865  0.40849354  0.79295798    -0.22500
C549        C  0.66359402  0.37968608  0.77194711     0.12000
S550        S  0.64723787  0.31925522  0.75103702    -0.06200
C551        C  0.67376632  0.34484493  0.72671798    -0.09600
C552        C  0.68033968  0.37631347  0.74139590    -0.26200
S553        S  0.63902611  0.44058763  0.85032111    -0.03400
C554        C  0.61000860  0.41619533  0.87235305    -0.16900
C555        C  0.60443851  0.38412809  0.85895330    -0.14900
H556        H  0.60887440  0.32821936  0.81571403     0.20500
H557        H  0.67846445  0.43084869  0.78640149     0.16500
H558        H  0.69549896  0.39634852  0.72999042     0.19000
H559        H  0.58697091  0.36553765  0.86943699     0.12400
C560        C  0.41358373  0.36293317  0.75856420     0.16300
C561        C  0.43367741  0.36150633  0.78824136    -0.32800
C562        C  0.43140783  0.38908951  0.81084482     0.20700
C563        C  0.41037969  0.41698810  0.80392324     0.02800
C564        C  0.39084906  0.41868497  0.77393012    -0.22500
C565        C  0.39275647  0.39089941  0.75159986     0.12000
S566        S  0.41081134  0.33108533  0.72928781    -0.06200
C567        C  0.38085928  0.35544257  0.70733205    -0.09600
C568        C  0.37419411  0.38695926  0.72219477    -0.26200
S569        S  0.40956274  0.44694494  0.83531321    -0.03400
C570        C  0.43776317  0.42163656  0.85810926    -0.16900
C571        C  0.44754311  0.39177252  0.84188715    -0.14900
H572        H  0.44965009  0.33947028  0.79391187     0.20500
H573        H  0.37413224  0.44027243  0.76873479     0.16500
H574        H  0.35633200  0.40591013  0.71252391     0.19000
H575        H  0.46469924  0.37268492  0.85262612     0.12400
C576        C  0.39547932  0.60883741  0.75773743     0.16300
C577        C  0.39933554  0.58300986  0.78262317    -0.32800
C578        C  0.41048305  0.59262928  0.81520366     0.20700
C579        C  0.41792401  0.62639578  0.82254259     0.02800
C580        C  0.41394374  0.65223511  0.79768983    -0.22500
C581        C  0.40252141  0.64264216  0.76519222     0.12000
S582        S  0.38051785  0.60262383  0.71732878    -0.06200
C583        C  0.38313947  0.64617463  0.71053167    -0.09600
C584        C  0.39581889  0.66417964  0.73806821    -0.26200
S585        S  0.43275516  0.63261963  0.86301704    -0.03400
C586        C  0.42858763  0.58936032  0.87013737    -0.16900
C587        C  0.41611082  0.57122927  0.84269434    -0.14900
H588        H  0.39360844  0.55663568  0.77693121     0.20500
H589        H  0.41948632  0.67863767  0.80343527     0.16500
H590        H  0.39823289  0.69173059  0.73885035     0.19000
H591        H  0.41275591  0.54376687  0.84242138     0.12400
loop_ 
_geom_bond_atom_site_label_1 
_geom_bond_atom_site_label_2 
_geom_bond_distance 
_geom_bond_site_symmetry_2 
_ccdc_geom_bond_type 
N1            N2   1.322       .  A
N1            N7   1.316       .  A
N1          Mn30   2.207       .  S
N2            C9   1.354       .  A
N3            N5   1.313       .  A
N3            N4   1.319       .  A
N3          Mn19   2.182   1_554  S
N4           C10   1.350       .  A
N5            N6   1.318       .  A
N5          Mn30   2.188   1_554  S
N6           C10   1.351       .  A
N7            N8   1.320       .  A
N7          Mn19   2.201       .  S
N8            C9   1.351       .  A
C9          C535   1.471       .  S
C10         C487   1.460       .  S
N11          N17   1.315       .  A
N11          N12   1.322       .  A
N11         Mn41   2.206   1_554  S
N12          C20   1.354       .  A
N13          N14   1.316       .  A
N13          N15   1.314       .  A
N13         Mn19   2.178       .  S
N14          C21   1.348       .  A
N15          N16   1.322       .  A
N15         Mn41   2.207       .  S
N16          C21   1.354       .  A
N17          N18   1.317       .  A
N17         Mn19   2.189   1_554  S
N18          C20   1.350       .  A
Mn19        Cl43   2.546       .  S
C20         C503   1.467       .  S
C21         C586   1.461       .  S
N22          N23   1.318       .  A
N22          N28   1.316       .  A
N22         Mn30   2.197   1_554  S
N23          C31   1.350       .  A
N24          N26   1.315       .  A
N24          N25   1.321       .  A
N24         Mn42   2.204       .  S
N25          C32   1.354       .  A
N26          N27   1.317       .  A
N26         Mn30   2.181       .  S
N27          C32   1.349       .  A
N28          N29   1.322       .  A
N28         Mn42   2.209   1_554  S
N29          C31   1.354       .  A
Mn30        Cl43   2.540       .  S
C31         C471   1.467       .  S
C32         C554   1.462       .  S
N33          N34   1.317       .  A
N33          N39   1.317       .  A
N33         Mn41   2.194       .  S
N34          C44   1.349       .  A
N35          N36   1.320       .  A
N35          N37   1.315       .  A
N35         Mn42   2.199   1_554  S
N36          C45   1.352       .  A
N37          N38   1.320       .  A
N37         Mn41   2.197   1_554  S
N38          C45   1.352       .  A
N39          N40   1.323       .  A
N39         Mn42   2.212       .  S
N40          C44   1.355       .  A
Mn41        Cl43   2.540       .  S
Mn42        Cl43   2.551       .  S
C44         C570   1.467       .  S
C45         C519   1.468       .  S
N46          N47   1.319       .  A
N46          N52   1.316       .  A
N46         Mn75   2.200   1_565  S
N47          C54   1.351       .  A
N48          N50   1.316       .  A
N48          N49   1.321       .  A
N48         Mn64   2.202       .  S
N49          C55   1.353       .  A
N50          N51   1.320       .  A
N50         Mn75   2.199       .  S
N51          C55   1.352       .  A
N52          N53   1.323       .  A
N52         Mn64   2.212   1_565  S
N53          C54   1.355       .  A
C54         C458   1.471       .  S
C55         C378   1.468       .  S
N56          N62   1.316       .  A
N56          N57   1.317       .  A
N56         Mn86   2.190       .  S
N57          C65   1.350       .  A
N58          N59   1.320       .  A
N58          N60   1.315       .  A
N58         Mn64   2.205   1_565  S
N59          C66   1.353       .  A
N60          N61   1.318       .  A
N60         Mn86   2.185   1_565  S
N61          C66   1.349       .  A
N62          N63   1.323       .  A
N62         Mn64   2.213       .  S
N63          C65   1.355       .  A
Mn64        Cl88   2.549       .  S
C65         C362   1.467       .  S
C66         C410   1.463       .  S
N67          N68   1.322       .  A
N67          N73   1.315       .  A
N67         Mn75   2.206       .  S
N68          C76   1.354       .  A
N69          N71   1.314       .  A
N69          N70   1.316       .  A
N69         Mn87   2.175   1_565  S
N70          C77   1.348       .  A
N71          N72   1.321       .  A
N71         Mn75   2.202   1_565  S
N72          C77   1.353       .  A
N73          N74   1.318       .  A
N73         Mn87   2.192       .  S
N74          C76   1.350       .  A
Mn75        Cl88   2.543       .  S
C76         C391   1.468       .  S
C77         C442   1.460       .  S
N78          N79   1.320       .  A
N78          N84   1.315       .  A
N78         Mn86   2.199   1_565  S
N79          C89   1.352       .  A
N80          N81   1.318       .  A
N80          N82   1.314       .  A
N80         Mn87   2.179       .  S
N81          C90   1.349       .  A
N82          N83   1.318       .  A
N82         Mn86   2.190       .  S
N83          C90   1.351       .  A
N84          N85   1.319       .  A
N84         Mn87   2.194   1_565  S
N85          C89   1.351       .  A
Mn86        Cl88   2.544       .  S
Mn87        Cl88   2.543       .  S
C89         C423   1.465       .  S
C90         C346   1.457       .  S
N91          N92   1.320       .  A
N91          N97   1.314       .  A
N91        Mn120   2.202   1_655  S
N92          C99   1.353       .  A
N93          N95   1.316       .  A
N93          N94   1.319       .  A
N93        Mn109   2.198       .  S
N94         C100   1.352       .  A
N95          N96   1.319       .  A
N95        Mn120   2.193       .  S
N96         C100   1.351       .  A
N97          N98   1.318       .  A
N97        Mn109   2.184   1_655  S
N98          C99   1.349       .  A
C99         C327   1.462       .  S
C100        C247   1.463       .  S
N101        N107   1.314       .  A
N101        N102   1.321       .  A
N101       Mn131   2.197       .  S
N102        C110   1.352       .  A
N103        N104   1.321       .  A
N103        N105   1.315       .  A
N103       Mn109   2.197   1_655  S
N104        C111   1.352       .  A
N105        N106   1.318       .  A
N105       Mn131   2.192   1_655  S
N106        C111   1.350       .  A
N107        N108   1.318       .  A
N107       Mn109   2.191       .  S
N108        C110   1.351       .  A
Mn109      Cl133   2.543       .  S
C110        C231   1.465       .  S
C111        C282   1.465       .  S
N112        N113   1.320       .  A
N112        N118   1.315       .  A
N112       Mn120   2.202       .  S
N113        C121   1.353       .  A
N114        N116   1.316       .  A
N114        N115   1.321       .  A
N114       Mn132   2.210   1_655  S
N115        C122   1.354       .  A
N116        N117   1.320       .  A
N116       Mn120   2.197   1_655  S
N117        C122   1.351       .  A
N118        N119   1.318       .  A
N118       Mn132   2.191       .  S
N119        C121   1.350       .  A
Mn120      Cl133   2.546       .  S
C121        C266   1.464       .  S
C122        C311   1.470       .  S
N123        N124   1.319       .  A
N123        N129   1.314       .  A
N123       Mn131   2.196   1_655  S
N124        C134   1.351       .  A
N125        N126   1.322       .  A
N125        N127   1.316       .  A
N125       Mn132   2.214       .  S
N126        C135   1.355       .  A
N127        N128   1.320       .  A
N127       Mn131   2.196       .  S
N128        C135   1.351       .  A
N129        N130   1.319       .  A
N129       Mn132   2.189   1_655  S
N130        C134   1.352       .  A
Mn131      Cl133   2.544       .  S
Mn132      Cl133   2.546       .  S
C134        C295   1.463       .  S
C135        C218   1.469       .  S
C136        C314   1.494       .  S
C136        C137   1.408       .  A
C136        C141   1.408       .  A
C137        C138   1.407       .  A
C137        H142   1.080       .  S
C138        C474   1.490       .  S
C138        C139   1.405       .  A
C139        C140   1.405       .  A
C139        H143   1.077       .  S
C140        C394   1.494       .  S
C140        C141   1.406       .  A
C141        H144   1.080       .  S
C145        C330   1.482       .  S
C145        C146   1.403       .  A
C145        C150   1.403       .  A
C146        C147   1.404       .  A
C146        H151   1.081       .  S
C147        C490   1.488       .  S
C147        C148   1.405       .  A
C148        C149   1.402       .  A
C148        H152   1.077       .  S
C149        C439   1.483       .  S
C149        C150   1.403       .  A
C150        H153   1.080       .  S
C154        C551   1.487       .  S
C154        C155   1.406       .  A
C154        C159   1.400       .  A
C155        C156   1.409       .  A
C155        H160   1.078       .  S
C156        C298   1.489       .  S
C156        C157   1.405       .  A
C157        C158   1.403       .  A
C157        H161   1.079       .  S
C158        C343   1.485       .  S
C158        C159   1.400       .  A
C159        H162   1.079       .  S
C163        C455   1.491       .  S
C163        C164   1.406       .  A
C163        C168   1.402       .  A
C164        C165   1.409       .  A
C164        H169   1.079       .  S
C165        C506   1.496       .  S
C165        C166   1.408       .  A
C166        C167   1.405       .  A
C166        H170   1.076       .  S
C167        C250   1.493       .  S
C167        C168   1.405       .  A
C168        H171   1.078       .  S
C172        C407   1.484       .  S
C172        C173   1.405       .  A
C172        C177   1.405       .  A
C173        C174   1.405       .  A
C173        H178   1.080       .  S
C174        C234   1.490       .  S
C174        C175   1.403       .  A
C175        C176   1.401       .  A
C175        H179   1.079       .  S
C176        C583   1.474       .  S
C176        C177   1.403       .  A
C177        H180   1.082       .  S
C181        C567   1.489       .  S
C181        C182   1.407       .  A
C181        C186   1.403       .  A
C182        C183   1.407       .  A
C182        H187   1.080       .  S
C183        C215   1.490       .  S
C183        C184   1.407       .  A
C184        C185   1.405       .  A
C184        H188   1.080       .  S
C185        C359   1.494       .  S
C185        C186   1.406       .  A
C186        H189   1.078       .  S
C190        C538   1.499       .  S
C190        C191   1.406       .  A
C190        C195   1.409       .  A
C191        C192   1.405       .  A
C191        H196   1.078       .  S
C192        C279   1.496       .  S
C192        C193   1.405       .  A
C193        C194   1.407       .  A
C193        H197   1.074       .  S
C194        C426   1.496       .  S
C194        C195   1.409       .  A
C195        H198   1.077       .  S
C199        C375   1.489       .  S
C199        C200   1.405       .  A
C199        C204   1.407       .  A
C200        C201   1.405       .  A
C200        H205   1.081       .  S
C201        C263   1.485       .  S
C201        C202   1.403       .  A
C202        C203   1.404       .  A
C202        H206   1.080       .  S
C203        C522   1.493       .  S
C203        C204   1.407       .  A
C204        H207   1.078       .  S
C208        C213   1.385       .  A
C208        C209   1.400       .  A
C208        S214   1.702       .  A
C209        C210   1.401       .  A
C209        H220   1.083       .  S
C210        C219   1.370       .  A
C210        C211   1.387       .  A
C211        C212   1.403       .  A
C211        S217   1.708       .  A
C212        C213   1.404       .  A
C212        H221   1.083       .  S
C213        C216   1.373       .  A
S214        C215   1.728       .  A
C215        C216   1.392       .  A
C216        H222   1.082       .  S
S217        C218   1.723       .  A
C218        C219   1.384       .  A
C219        H223   1.083       .  S
C224        C229   1.387       .  A
C224        C225   1.401       .  A
C224        S230   1.708       .  A
C225        C226   1.403       .  A
C225        H236   1.083       .  S
C226        C235   1.367       .  A
C226        C227   1.384       .  A
C227        C228   1.398       .  A
C227        S233   1.701       .  A
C228        C229   1.400       .  A
C228        H237   1.083       .  S
C229        C232   1.365       .  A
S230        C231   1.722       .  A
C231        C232   1.384       .  A
C232        H238   1.083       .  S
S233        C234   1.728       .  A
C234        C235   1.393       .  A
C235        H239   1.081       .  S
C240        C245   1.387       .  A
C240        C241   1.397       .  A
C240        S246   1.703       .  A
C241        C242   1.399       .  A
C241        H252   1.083       .  S
C242        C251   1.364       .  A
C242        C243   1.384       .  A
C243        C244   1.401       .  A
C243        S249   1.704       .  A
C244        C245   1.402       .  A
C244        H253   1.083       .  S
C245        C248   1.368       .  A
S246        C247   1.719       .  A
C247        C248   1.385       .  A
C248        H254   1.083       .  S
S249        C250   1.732       .  A
C250        C251   1.392       .  A
C251        H255   1.080       .  S
C256        C261   1.386       .  A
C256        C257   1.399       .  A
C256        S262   1.700       .  A
C257        C258   1.399       .  A
C257        H268   1.083       .  S
C258        C267   1.368       .  A
C258        C259   1.388       .  A
C259        C260   1.401       .  A
C259        S265   1.705       .  A
C260        C261   1.401       .  A
C260        H269   1.083       .  S
C261        C264   1.370       .  A
S262        C263   1.727       .  A
C263        C264   1.390       .  A
C264        H270   1.082       .  S
S265        C266   1.721       .  A
C266        C267   1.383       .  A
C267        H271   1.083       .  S
C272        C277   1.384       .  A
C272        C273   1.397       .  A
C272        S278   1.697       .  A
C273        C274   1.398       .  A
C273        H284   1.083       .  S
C274        C283   1.364       .  A
C274        C275   1.387       .  A
C275        C276   1.402       .  A
C275        S281   1.709       .  A
C276        C277   1.404       .  A
C276        H285   1.083       .  S
C277        C280   1.370       .  A
S278        C279   1.729       .  A
C279        C280   1.396       .  A
C280        H286   1.080       .  S
S281        C282   1.723       .  A
C282        C283   1.383       .  A
C283        H287   1.083       .  S
C288        C293   1.387       .  A
C288        C289   1.399       .  A
C288        S294   1.705       .  A
C289        C290   1.401       .  A
C289        H300   1.083       .  S
C290        C299   1.368       .  A
C290        C291   1.385       .  A
C291        C292   1.399       .  A
C291        S297   1.700       .  A
C292        C293   1.400       .  A
C292        H301   1.083       .  S
C293        C296   1.367       .  A
S294        C295   1.721       .  A
C295        C296   1.384       .  A
C296        H302   1.083       .  S
S297        C298   1.730       .  A
C298        C299   1.391       .  A
C299        H303   1.081       .  S
C304        C309   1.387       .  A
C304        C305   1.404       .  A
C304        S310   1.709       .  A
C305        C306   1.405       .  A
C305        H316   1.083       .  S
C306        C315   1.372       .  A
C306        C307   1.385       .  A
C307        C308   1.399       .  A
C307        S313   1.701       .  A
C308        C309   1.400       .  A
C308        H317   1.083       .  S
C309        C312   1.369       .  A
S310        C311   1.724       .  A
C311        C312   1.384       .  A
C312        H318   1.083       .  S
S313        C314   1.729       .  A
C314        C315   1.394       .  A
C315        H319   1.081       .  S
C320        C325   1.388       .  A
C320        C321   1.399       .  A
C320        S326   1.705       .  A
C321        C322   1.401       .  A
C321        H332   1.083       .  S
C322        C331   1.366       .  A
C322        C323   1.386       .  A
C323        C324   1.398       .  A
C323        S329   1.702       .  A
C324        C325   1.399       .  A
C324        H333   1.083       .  S
C325        C328   1.366       .  A
S326        C327   1.722       .  A
C327        C328   1.382       .  A
C328        H334   1.083       .  S
S329        C330   1.726       .  A
C330        C331   1.389       .  A
C331        H335   1.082       .  S
C336        C341   1.385       .  A
C336        C337   1.395       .  A
C336        S342   1.695       .  A
C337        C338   1.396       .  A
C337        H348   1.083       .  S
C338        C347   1.362       .  A
C338        C339   1.388       .  A
C339        C340   1.398       .  A
C339        S345   1.704       .  A
C340        C341   1.400       .  A
C340        H349   1.083       .  S
C341        C344   1.365       .  A
S342        C343   1.728       .  A
C343        C344   1.391       .  A
C344        H350   1.081       .  S
S345        C346   1.720       .  A
C346        C347   1.380       .  A
C347        H351   1.083       .  S
C352        C357   1.384       .  A
C352        C353   1.403       .  A
C352        S358   1.706       .  A
C353        C354   1.404       .  A
C353        H364   1.083       .  S
C354        C363   1.372       .  A
C354        C355   1.387       .  A
C355        C356   1.398       .  A
C355        S361   1.702       .  A
C356        C357   1.399       .  A
C356        H365   1.083       .  S
C357        C360   1.366       .  A
S358        C359   1.732       .  A
C359        C360   1.392       .  A
C360        H366   1.080       .  S
S361        C362   1.721       .  A
C362        C363   1.386       .  A
C363        H367   1.083       .  S
C368        C373   1.385       .  A
C368        C369   1.402       .  A
C368        S374   1.706       .  A
C369        C370   1.403       .  A
C369        H380   1.083       .  S
C370        C379   1.370       .  A
C370        C371   1.387       .  A
C371        C372   1.400       .  A
C371        S377   1.706       .  A
C372        C373   1.401       .  A
C372        H381   1.083       .  S
C373        C376   1.367       .  A
S374        C375   1.729       .  A
C375        C376   1.391       .  A
C376        H382   1.082       .  S
S377        C378   1.721       .  A
C378        C379   1.385       .  A
C379        H383   1.083       .  S
C384        C389   1.387       .  A
C384        C385   1.401       .  A
C384        S390   1.709       .  A
C385        C386   1.403       .  A
C385        H396   1.083       .  S
C386        C395   1.368       .  A
C386        C387   1.384       .  A
C387        C388   1.400       .  A
C387        S393   1.704       .  A
C388        C389   1.401       .  A
C388        H397   1.083       .  S
C389        C392   1.367       .  A
S390        C391   1.722       .  A
C391        C392   1.385       .  A
C392        H398   1.083       .  S
S393        C394   1.730       .  A
C394        C395   1.394       .  A
C395        H399   1.081       .  S
C400        C405   1.386       .  A
C400        C401   1.397       .  A
C400        S406   1.699       .  A
C401        C402   1.398       .  A
C401        H412   1.083       .  S
C402        C411   1.366       .  A
C402        C403   1.388       .  A
C403        C404   1.402       .  A
C403        S409   1.707       .  A
C404        C405   1.403       .  A
C404        H413   1.083       .  S
C405        C408   1.370       .  A
S406        C407   1.726       .  A
C407        C408   1.390       .  A
C408        H414   1.082       .  S
S409        C410   1.722       .  A
C410        C411   1.381       .  A
C411        H415   1.083       .  S
C416        C421   1.387       .  A
C416        C417   1.400       .  A
C416        S422   1.706       .  A
C417        C418   1.402       .  A
C417        H428   1.083       .  S
C418        C427   1.367       .  A
C418        C419   1.384       .  A
C419        C420   1.400       .  A
C419        S425   1.703       .  A
C420        C421   1.401       .  A
C420        H429   1.083       .  S
C421        C424   1.368       .  A
S422        C423   1.721       .  A
C423        C424   1.384       .  A
C424        H430   1.083       .  S
S425        C426   1.730       .  A
C426        C427   1.394       .  A
C427        H431   1.080       .  S
C432        C437   1.385       .  A
C432        C433   1.398       .  A
C432        S438   1.700       .  A
C433        C434   1.399       .  A
C433        H444   1.083       .  S
C434        C443   1.366       .  A
C434        C435   1.388       .  A
C435        C436   1.398       .  A
C435        S441   1.702       .  A
C436        C437   1.399       .  A
C436        H445   1.083       .  S
C437        C440   1.366       .  A
S438        C439   1.727       .  A
C439        C440   1.389       .  A
C440        H446   1.082       .  S
S441        C442   1.721       .  A
C442        C443   1.382       .  A
C443        H447   1.083       .  S
C448        C453   1.385       .  A
C448        C449   1.403       .  A
C448        S454   1.704       .  A
C449        C450   1.403       .  A
C449        H460   1.083       .  S
C450        C459   1.373       .  A
C450        C451   1.387       .  A
C451        C452   1.401       .  A
C451        S457   1.704       .  A
C452        C453   1.401       .  A
C452        H461   1.083       .  S
C453        C456   1.371       .  A
S454        C455   1.731       .  A
C455        C456   1.390       .  A
C456        H462   1.082       .  S
S457        C458   1.722       .  A
C458        C459   1.386       .  A
C459        H463   1.083       .  S
C464        C469   1.387       .  A
C464        C465   1.401       .  A
C464        S470   1.709       .  A
C465        C466   1.403       .  A
C465        H476   1.083       .  S
C466        C475   1.368       .  A
C466        C467   1.385       .  A
C467        C468   1.400       .  A
C467        S473   1.705       .  A
C468        C469   1.401       .  A
C468        H477   1.083       .  S
C469        C472   1.367       .  A
S470        C471   1.722       .  A
C471        C472   1.385       .  A
C472        H478   1.083       .  S
S473        C474   1.727       .  A
C474        C475   1.393       .  A
C475        H479   1.082       .  S
C480        C485   1.388       .  A
C480        C481   1.398       .  A
C480        S486   1.705       .  A
C481        C482   1.401       .  A
C481        H492   1.083       .  S
C482        C491   1.365       .  A
C482        C483   1.384       .  A
C483        C484   1.397       .  A
C483        S489   1.700       .  A
C484        C485   1.399       .  A
C484        H493   1.083       .  S
C485        C488   1.364       .  A
S486        C487   1.720       .  A
C487        C488   1.382       .  A
C488        H494   1.083       .  S
S489        C490   1.728       .  A
C490        C491   1.392       .  A
C491        H495   1.081       .  S
C496        C501   1.387       .  A
C496        C497   1.402       .  A
C496        S502   1.710       .  A
C497        C498   1.404       .  A
C497        H508   1.083       .  S
C498        C507   1.369       .  A
C498        C499   1.383       .  A
C499        C500   1.398       .  A
C499        S505   1.701       .  A
C500        C501   1.400       .  A
C500        H509   1.083       .  S
C501        C504   1.365       .  A
S502        C503   1.722       .  A
C503        C504   1.384       .  A
C504        H510   1.083       .  S
S505        C506   1.729       .  A
C506        C507   1.396       .  A
C507        H511   1.080       .  S
C512        C517   1.387       .  A
C512        C513   1.400       .  A
C512        S518   1.706       .  A
C513        C514   1.402       .  A
C513        H524   1.083       .  S
C514        C523   1.369       .  A
C514        C515   1.384       .  A
C515        C516   1.401       .  A
C515        S521   1.702       .  A
C516        C517   1.401       .  A
C516        H525   1.083       .  S
C517        C520   1.369       .  A
S518        C519   1.722       .  A
C519        C520   1.385       .  A
C520        H526   1.083       .  S
S521        C522   1.731       .  A
C522        C523   1.393       .  A
C523        H527   1.081       .  S
C528        C533   1.387       .  A
C528        C529   1.402       .  A
C528        S534   1.706       .  A
C529        C530   1.403       .  A
C529        H540   1.083       .  S
C530        C539   1.372       .  A
C530        C531   1.384       .  A
C531        C532   1.402       .  A
C531        S537   1.701       .  A
C532        C533   1.402       .  A
C532        H541   1.083       .  S
C533        C536   1.372       .  A
S534        C535   1.723       .  A
C535        C536   1.386       .  A
C536        H542   1.083       .  S
S537        C538   1.733       .  A
C538        C539   1.395       .  A
C539        H543   1.080       .  S
C544        C549   1.385       .  A
C544        C545   1.399       .  A
C544        S550   1.698       .  A
C545        C546   1.399       .  A
C545        H556   1.083       .  S
C546        C555   1.368       .  A
C546        C547   1.388       .  A
C547        C548   1.399       .  A
C547        S553   1.702       .  A
C548        C549   1.399       .  A
C548        H557   1.083       .  S
C549        C552   1.368       .  A
S550        C551   1.730       .  A
C551        C552   1.389       .  A
C552        H558   1.082       .  S
S553        C554   1.720       .  A
C554        C555   1.383       .  A
C555        H559   1.083       .  S
C560        C565   1.385       .  A
C560        C561   1.402       .  A
C560        S566   1.702       .  A
C561        C562   1.402       .  A
C561        H572   1.083       .  S
C562        C571   1.372       .  A
C562        C563   1.388       .  A
C563        C564   1.400       .  A
C563        S569   1.702       .  A
C564        C565   1.400       .  A
C564        H573   1.083       .  S
C565        C568   1.370       .  A
S566        C567   1.730       .  A
C567        C568   1.390       .  A
C568        H574   1.082       .  S
S569        C570   1.722       .  A
C570        C571   1.385       .  A
C571        H575   1.083       .  S
C576        C581   1.387       .  A
C576        C577   1.400       .  A
C576        S582   1.702       .  A
C577        C578   1.400       .  A
C577        H588   1.083       .  S
C578        C587   1.369       .  A
C578        C579   1.388       .  A
C579        C580   1.399       .  A
C579        S585   1.702       .  A
C580        C581   1.400       .  A
C580        H589   1.083       .  S
C581        C584   1.368       .  A
S582        C583   1.725       .  A
C583        C584   1.385       .  A
C584        H590   1.083       .  S
S585        C586   1.720       .  A
C586        C587   1.382       .  A
C587        H591   1.083       .  S
