geometry optimzed in LAMMPS
_audit_creation_date              2020-12-01 
_audit_creation_method            'lammps2cif' 
_symmetry_space_group_name_H-M    'P1' 
_symmetry_Int_Tables_number       1 
_symmetry_cell_setting            triclinic 
loop_ 
_symmetry_equiv_pos_as_xyz 
  x,y,z 
_cell_length_a                    27.0153444 
_cell_length_b                    47.47783200837053 
_cell_length_c                    48.63937227499776 
_cell_angle_alpha                 89.90277446004099 
_cell_angle_beta                  89.80867549471809 
_cell_angle_gamma                 89.95191726350048 
loop_ 
_atom_site_label 
_atom_site_type_symbol 
_atom_site_fract_x 
_atom_site_fract_y 
_atom_site_fract_z 
_atom_site_charge 
N1          N  0.98507000  0.54193684  0.50077167    -0.36500
N2          N  0.01014863  0.50042807  0.04400650    -0.57000
N3          N  0.00476397  0.45745289  0.00104147    -0.36500
N4          N  0.98881636  0.49896324  0.45840750    -0.57000
C5          C  0.01183885  0.55987972  0.02526897     0.27100
C6          C  0.99909826  0.55767445  0.47882177     0.27100
C7          C  0.01842436  0.44129281  0.02270994     0.27100
C8          C  0.99432239  0.43949005  0.47732225     0.27100
C9          C  0.99896446  0.52253002  0.06045845     0.35700
C10         C  0.00513960  0.47698898  0.05963352     0.35700
C11         C  0.98205921  0.52216351  0.44267566     0.35700
C12         C  0.97758395  0.47663648  0.44239126     0.35700
C13         C  0.02926662  0.58619294  0.01756939    -0.21800
C14         C  0.01727949  0.58334300  0.48788718    -0.21800
C15         C  0.03277862  0.41493074  0.01328038    -0.21800
C16         C  0.01306894  0.41340098  0.48477386    -0.21800
C17         C  0.98667936  0.51303180  0.08657394    -0.22800
C18         C  0.99101719  0.48424602  0.08610952    -0.22800
C19         C  0.96637558  0.51456599  0.41663802    -0.22800
C20         C  0.96330488  0.48574408  0.41648759    -0.22800
C21         C  0.00313083  0.55122540  0.05275040    -0.18200
C22         C  0.99342808  0.54995420  0.45086987    -0.18200
C23         C  0.98448484  0.44812786  0.44997326    -0.18200
C24         C  0.01531261  0.44916349  0.05080661    -0.18200
H25         H  0.03975787  0.60335665  0.03095305     0.14700
H26         H  0.03130411  0.60053218  0.47548289     0.14700
H27         H  0.04522290  0.39718684  0.02543017     0.14700
H28         H  0.02373738  0.39637160  0.47122194     0.14700
H29         H  0.97609314  0.52550108  0.10424284     0.13000
H30         H  0.98420099  0.47022599  0.10327753     0.13000
H31         H  0.95828625  0.52834944  0.39948140     0.13000
H32         H  0.95260874  0.47295122  0.39910187     0.13000
H33         H  0.96553334  0.52310324  0.50021800     0.26300
H34         H  0.98746318  0.47692197  0.00209385     0.26300
C35         C  0.04710427  0.23645884  0.23184947     0.45600
H36         H  0.07590702  0.23643675  0.21551556    -0.03400
C37         C  0.97957257  0.23647221  0.26992991     0.45600
H38         H  0.95073562  0.23640904  0.28623102    -0.03400
C39         C  0.00033883  0.22028685  0.22365157    -0.17100
C40         C  0.06357232  0.22178152  0.25866231    -0.16900
C41         C  0.02903735  0.26608333  0.23966883    -0.17300
C42         C  0.96413567  0.22047659  0.24370355    -0.17200
C43         C  0.02738910  0.22160835  0.27872414    -0.16800
C44         C  0.99570416  0.26615544  0.26102003    -0.17100
N45         N  0.43636761  0.99969145  0.23987396    -0.36500
N46         N  0.51227839  0.04286026  0.24361314    -0.57000
N47         N  0.58785557  0.99924125  0.24295322    -0.36500
N48         N  0.51191860  0.95602254  0.24242140    -0.57000
C49         C  0.40873105  0.02249137  0.24652965     0.27100
C50         C  0.40860339  0.97661517  0.24527656     0.27100
C51         C  0.61493706  0.02209929  0.24993294     0.27100
C52         C  0.61465958  0.97617892  0.24986822     0.27100
C53         C  0.47246930  0.05944863  0.23901211     0.35700
C54         C  0.55263555  0.05928096  0.23999871     0.35700
C55         C  0.47227524  0.94009650  0.23581053     0.35700
C56         C  0.55234040  0.93977193  0.23816533     0.35700
C57         C  0.36284878  0.01381375  0.25618443    -0.21800
C58         C  0.36281482  0.98486152  0.25547219    -0.21800
C59         C  0.65943146  0.01348338  0.26132572    -0.21800
C60         C  0.65917917  0.98452404  0.26138876    -0.21800
C61         C  0.48753802  0.08656499  0.23255028    -0.22800
C62         C  0.53840977  0.08644350  0.23310562    -0.22800
C63         C  0.48761433  0.91366623  0.22716225    -0.22800
C64         C  0.53837641  0.91342966  0.22876927    -0.22800
C65         C  0.42282342  0.05092040  0.24274066    -0.18200
C66         C  0.42246700  0.94842947  0.23968048    -0.18200
C67         C  0.60131108  0.94787638  0.24448782    -0.18200
C68         C  0.60183752  0.05050189  0.24487660    -0.18200
H69         H  0.33244270  0.02697967  0.26294462     0.14700
H70         H  0.33237672  0.97142693  0.26163008     0.14700
H71         H  0.68911763  0.02670826  0.26875419     0.14700
H72         H  0.68868379  0.97114845  0.26886491     0.14700
H73         H  0.46429590  0.10461716  0.22826395     0.13000
H74         H  0.56214344  0.10440088  0.22933457     0.13000
H75         H  0.46465127  0.89623847  0.22070858     0.13000
H76         H  0.56223297  0.89582899  0.22378069     0.13000
H77         H  0.46995656  0.99992410  0.22933498     0.26300
H78         H  0.55570980  0.99941581  0.23126139     0.26300
C79         C  0.04912272  0.76487269  0.26928897     0.45600
H80         H  0.08002710  0.76615190  0.28425305    -0.03400
C81         C  0.97774183  0.76227936  0.23391575     0.45600
H82         H  0.94700599  0.76111861  0.21882655    -0.03400
C83         C  0.00222116  0.78034841  0.27860559    -0.17100
C84         C  0.06185614  0.77861435  0.24146682    -0.16900
C85         C  0.03245102  0.73451526  0.26323420    -0.17300
C86         C  0.96408534  0.77883995  0.26005336    -0.17200
C87         C  0.02367082  0.77747118  0.22286687    -0.16800
C88         C  0.99660583  0.73324585  0.24316235    -0.15100
O89         O  0.96391163  0.02447486  0.03074477    -0.71600
O90         O  0.96409320  0.97447380  0.47181261    -0.71900
O91         O  0.96153964  0.96788420  0.02763310    -0.71700
O92         O  0.96458970  0.03122999  0.47446168    -0.71700
O93         O  0.04482888  0.02881486  0.47515782    -0.71700
O94         O  0.04186254  0.96767209  0.02604201    -0.71700
O95         O  0.04399473  0.97205727  0.47589985    -0.71700
O96         O  0.04416035  0.02437373  0.02821521    -0.71800
V97         V  0.96301580  0.00114591  0.50050622     1.35200
V98         V  0.04007373  0.00106428  0.50283149     1.35200
C99         C  0.00487878  0.03395737  0.03900706     0.77600
C100        C  0.00456738  0.96324033  0.46484688     0.77600
C101        C  0.00222589  0.95726790  0.03534532     0.77500
C102        C  0.00606586  0.04034830  0.46609196     0.77500
C103        C  0.02165575  0.79327482  0.19666070    -0.03200
C104        C  0.98004126  0.81008354  0.19118681    -0.09000
C105        C  0.97816149  0.82660538  0.16756966    -0.16700
C106        C  0.01769920  0.82644330  0.14901667     0.25500
C107        C  0.05898991  0.80927320  0.15390915    -0.18300
C108        C  0.06092152  0.79262573  0.17767169    -0.07200
C109        C  0.01638337  0.84526566  0.12594976    -0.13700
C110        C  0.01326665  0.86305858  0.10841229    -0.13400
C111        C  0.00977303  0.88602902  0.08932484     0.25400
C112        C  0.05290605  0.89723314  0.07783104    -0.18800
C113        C  0.05021276  0.92050476  0.06039588    -0.07300
C114        C  0.00423902  0.93291972  0.05421558    -0.03400
C115        C  0.96091325  0.92141509  0.06569509    -0.08700
C116        C  0.96373604  0.89809420  0.08325385    -0.16300
H117        H  0.94949170  0.81114992  0.20558256     0.11800
H118        H  0.94625237  0.83997202  0.16406193     0.11100
H119        H  0.08987692  0.80911903  0.13965148     0.11100
H120        H  0.09314239  0.77961500  0.18144745     0.11600
H121        H  0.08869634  0.88813274  0.08253724     0.11700
H122        H  0.08423008  0.92876313  0.05174720     0.11600
H123        H  0.92503398  0.93047792  0.06120869     0.11800
H124        H  0.93014619  0.88962289  0.09224840     0.10600
C125        C  0.00489460  0.93981422  0.44497229    -0.03200
C126        C  0.95990195  0.92954103  0.43449257    -0.09000
C127        C  0.95948234  0.90681828  0.41638075    -0.16700
C128        C  0.00393445  0.89407082  0.40853027     0.25500
C129        C  0.04891559  0.90400660  0.41890393    -0.18300
C130        C  0.04943675  0.92675891  0.43710894    -0.07200
C131        C  0.00332997  0.87153319  0.38897392    -0.13700
C132        C  0.00263612  0.85378089  0.37139243    -0.13400
C133        C  0.00298721  0.83426248  0.34895868     0.25400
C134        C  0.04280836  0.83437712  0.33055261    -0.18800
C135        C  0.04262012  0.81645465  0.30791451    -0.07300
C136        C  0.00242815  0.79834016  0.30336718    -0.03400
C137        C  0.96281220  0.79798456  0.32211167    -0.08700
C138        C  0.96306127  0.81597067  0.34483722    -0.16300
H139        H  0.92493640  0.93899725  0.44034725     0.11800
H140        H  0.92451900  0.89930284  0.40837696     0.11100
H141        H  0.08353363  0.89427063  0.41281525     0.11100
H142        H  0.08454732  0.93409376  0.44502152     0.11600
H143        H  0.07369407  0.84859516  0.33349990     0.11700
H144        H  0.07335446  0.81726369  0.29359708     0.11600
H145        H  0.93173732  0.78395669  0.31904488     0.11800
H146        H  0.93202350  0.81582230  0.35899573     0.10600
C147        C  0.10665838  0.79641730  0.23850164    -0.03200
C148        C  0.15341000  0.78539211  0.24501618    -0.09000
C149        C  0.19537053  0.80267161  0.24428083    -0.16700
C150        C  0.19084288  0.83118342  0.23723817     0.25500
C151        C  0.14427369  0.84229794  0.23086604    -0.18300
C152        C  0.10237907  0.82509937  0.23169978    -0.07200
C153        C  0.23347779  0.84937443  0.23727050    -0.13700
C154        C  0.26770609  0.86567398  0.23742952    -0.13400
C155        C  0.30712093  0.88607965  0.23767711     0.25400
C156        C  0.30602747  0.90896723  0.21948760    -0.18800
C157        C  0.34378640  0.92908235  0.21996550    -0.07300
C158        C  0.38294627  0.92660466  0.23876458    -0.03400
C159        C  0.38373860  0.90363682  0.25703152    -0.08700
C160        C  0.34610196  0.88343391  0.25641428    -0.16300
H161        H  0.15730660  0.76347122  0.25083318     0.11800
H162        H  0.23117101  0.79389264  0.24947907     0.11100
H163        H  0.14022345  0.86438860  0.22570965     0.11100
H164        H  0.06649037  0.83437220  0.22769733     0.11600
H165        H  0.27592159  0.91130382  0.20499737     0.11700
H166        H  0.34243693  0.94667123  0.20577412     0.11600
H167        H  0.41336005  0.90148813  0.27184056     0.11800
H168        H  0.34720941  0.86588459  0.27066463     0.10600
C169        C  0.64036925  0.92573724  0.24638477    -0.03200
C170        C  0.63731619  0.90445384  0.26644599    -0.09000
C171        C  0.67527812  0.88450057  0.26906370    -0.16700
C172        C  0.71669433  0.88557183  0.25164885     0.25500
C173        C  0.71960137  0.90657176  0.23142013    -0.18300
C174        C  0.68170056  0.92651597  0.22878755    -0.07200
C175        C  0.75668009  0.86555565  0.25476578    -0.13700
C176        C  0.79135968  0.84957433  0.25696421    -0.13400
C177        C  0.83435406  0.83152274  0.25894903     0.25400
C178        C  0.88122359  0.84339191  0.26292317    -0.18800
C179        C  0.92326774  0.82620934  0.26383325    -0.07300
C180        C  0.91902131  0.79683128  0.26101096    -0.03400
C181        C  0.87203258  0.78501183  0.25689678    -0.08700
C182        C  0.82987093  0.80224700  0.25604656    -0.16300
H183        H  0.60589427  0.90358881  0.28030965     0.11800
H184        H  0.67255385  0.86842497  0.28482670     0.11100
H185        H  0.75139352  0.90768090  0.21782778     0.11100
H186        H  0.68475998  0.94276097  0.21321418     0.11600
H187        H  0.88537404  0.86599388  0.26489032     0.11700
H188        H  0.95927587  0.83592915  0.26606804     0.11600
H189        H  0.86807723  0.76248203  0.25423307     0.11800
H190        H  0.79389986  0.79278755  0.25277955     0.10600
C191        C  0.00051286  0.20195991  0.19889058    -0.03200
C192        C  0.04290553  0.18583857  0.19296359    -0.09000
C193        C  0.04355102  0.16733385  0.17077773    -0.16700
C194        C  0.00190550  0.16463773  0.15407555     0.25500
C195        C  0.95970928  0.18101880  0.15936612    -0.18300
C196        C  0.95904335  0.19970363  0.18166167    -0.07200
C197        C  0.00223417  0.14392466  0.13252722    -0.13700
C198        C  0.00396362  0.12517271  0.11587575    -0.13400
C199        C  0.00506460  0.10178425  0.09711497     0.25400
C200        C  0.96137329  0.08716371  0.09154519    -0.18800
C201        C  0.96174442  0.06463874  0.07315635    -0.07300
C202        C  0.00594695  0.05634490  0.06008073    -0.03400
C203        C  0.05000309  0.07074274  0.06621705    -0.08700
C204        C  0.04951097  0.09339178  0.08463298    -0.16300
H205        H  0.07527153  0.18687009  0.20593424     0.11800
H206        H  0.07627474  0.15468493  0.16698756     0.11100
H207        H  0.92718896  0.17904242  0.14654823     0.11100
H208        H  0.92613441  0.21209083  0.18566007     0.11600
H209        H  0.92687317  0.09333424  0.10124678     0.11700
H210        H  0.92722234  0.05393632  0.06892230     0.11600
H211        H  0.08452675  0.06488262  0.05639120     0.11800
H212        H  0.08363404  0.10448569  0.08894663     0.10600
C213        C  0.02847135  0.20452965  0.30434858    -0.03200
C214        C  0.98679755  0.18827518  0.31133344    -0.09000
C215        C  0.98684180  0.17139350  0.33474029    -0.16700
C216        C  0.02852381  0.17038567  0.35158302     0.25500
C217        C  0.07027971  0.18663324  0.34504208    -0.18300
C218        C  0.07019291  0.20378010  0.32153705    -0.07200
C219        C  0.02828407  0.15157214  0.37474594    -0.13700
C220        C  0.02469442  0.13394245  0.39246929    -0.13400
C221        C  0.01951086  0.11113345  0.41171683     0.25400
C222        C  0.06174474  0.09770070  0.42178968    -0.18800
C223        C  0.05711285  0.07451487  0.43924802    -0.07300
C224        C  0.01006317  0.06439650  0.44689748    -0.03400
C225        C  0.96768694  0.07812344  0.43684357    -0.08700
C226        C  0.97244128  0.10136574  0.41927945    -0.16300
H227        H  0.95435718  0.18804434  0.29837441     0.11800
H228        H  0.95452315  0.15874854  0.33947404     0.11100
H229        H  0.10288165  0.18586783  0.35792565     0.11100
H230        H  0.10260687  0.21625257  0.31667651     0.11600
H231        H  0.09830210  0.10499381  0.41595319     0.11700
H232        H  0.09048877  0.06453516  0.44678275     0.11600
H233        H  0.93102785  0.07091631  0.44252645     0.11800
H234        H  0.93948034  0.11156484  0.41143501     0.10600
C235        C  0.92043017  0.20147692  0.24410733    -0.03200
C236        C  0.87335586  0.21211529  0.25062875    -0.09000
C237        C  0.83243000  0.19404030  0.25215163    -0.16700
C238        C  0.83827964  0.16508685  0.24750448     0.25500
C239        C  0.88539311  0.15429942  0.24162697    -0.18300
C240        C  0.92624477  0.17231784  0.24014405    -0.07200
C241        C  0.79607707  0.14642933  0.24846362    -0.13700
C242        C  0.76134272  0.13038375  0.24845776    -0.13400
C243        C  0.72057359  0.11073771  0.24745689     0.25400
C244        C  0.71738389  0.09142720  0.22578180    -0.18800
C245        C  0.67833721  0.07212069  0.22480389    -0.07300
C246        C  0.64187311  0.07197992  0.24543586    -0.03400
C247        C  0.64494648  0.09146132  0.26706296    -0.08700
C248        C  0.68417024  0.11072747  0.26807933    -0.16300
H249        H  0.86830463  0.23441370  0.25439473     0.11800
H250        H  0.79625817  0.20263922  0.25691567     0.11100
H251        H  0.89059554  0.13193518  0.23828082     0.11100
H252        H  0.96251867  0.16342925  0.23625821     0.11600
H253        H  0.74525133  0.09118659  0.20971423     0.11700
H254        H  0.67662456  0.05714907  0.20805540     0.11600
H255        H  0.61734435  0.09146909  0.28326330     0.11800
H256        H  0.68623910  0.12549718  0.28498660     0.10600
C257        C  0.10844048  0.20365704  0.25883755    -0.03200
C258        C  0.15429095  0.21464376  0.25041090    -0.09000
C259        C  0.19586446  0.19708933  0.24837893    -0.16700
C260        C  0.19185819  0.16831967  0.25451116     0.25500
C261        C  0.14614572  0.15723636  0.26271394    -0.18300
C262        C  0.10462922  0.17469921  0.26461598    -0.07200
C263        C  0.23407842  0.14989310  0.25181200    -0.13700
C264        C  0.26813402  0.13353084  0.24970755    -0.13400
C265        C  0.30777446  0.11325901  0.24759547     0.25400
C266        C  0.34114847  0.10987691  0.26934336    -0.18800
C267        C  0.37901765  0.08983125  0.26759344    -0.07300
C268        C  0.38371419  0.07287977  0.24411904    -0.03400
C269        C  0.35021471  0.07628018  0.22235854    -0.08700
C270        C  0.31248857  0.09644670  0.22406350    -0.16300
H271        H  0.15776024  0.23675336  0.24522959     0.11800
H272        H  0.23093853  0.20587951  0.24177024     0.11100
H273        H  0.14238840  0.13497464  0.26718451     0.11100
H274        H  0.06926732  0.16541508  0.26990665     0.11600
H275        H  0.33772384  0.12262091  0.28770668     0.11700
H276        H  0.40435248  0.08727722  0.28462860     0.11600
H277        H  0.35325833  0.06325662  0.20416848     0.11800
H278        H  0.28681220  0.09878448  0.20714765     0.10600
C279        C  0.02333674  0.42727280  0.07236950    -0.03200
C280        C  0.06352136  0.42957026  0.09051753    -0.09000
C281        C  0.06991253  0.40995710  0.11173669    -0.16700
C282        C  0.03623488  0.38779425  0.11508984     0.25500
C283        C  0.99633451  0.38524103  0.09688348    -0.18300
C284        C  0.98989402  0.40486654  0.07564031    -0.07200
C285        C  0.04176523  0.36815286  0.13761100    -0.13700
C286        C  0.04412553  0.35179256  0.15664726    -0.13400
C287        C  0.04252302  0.33199310  0.17922959     0.25400
C288        C  0.99809992  0.32805272  0.19355066    -0.18800
C289        C  0.99464040  0.30754450  0.21407227    -0.07300
C290        C  0.03567302  0.29057780  0.22074802    -0.03400
C291        C  0.08063686  0.29510202  0.20678576    -0.08700
C292        C  0.08406824  0.31575952  0.18618204    -0.16300
H293        H  0.08958987  0.44676241  0.08838577     0.11800
H294        H  0.10081579  0.41224820  0.12569018     0.11100
H295        H  0.96989158  0.36826668  0.09930081     0.11100
H296        H  0.95848801  0.40286307  0.06200297     0.11600
H297        H  0.96561110  0.34031155  0.18831013     0.11700
H298        H  0.95910182  0.30413465  0.22387453     0.11600
H299        H  0.11278313  0.28234745  0.21144569     0.11800
H300        H  0.11871932  0.31860357  0.17526182     0.10600
C301        C  0.98331495  0.42656494  0.42778063    -0.03200
C302        C  0.01899229  0.42699399  0.40668793    -0.09000
C303        C  0.01527290  0.40854437  0.38438569    -0.16700
C304        C  0.97593209  0.38939544  0.38290229     0.25500
C305        C  0.94078771  0.38850274  0.40416883    -0.18300
C306        C  0.94447950  0.40697492  0.42651602    -0.07200
C307        C  0.97215637  0.37053858  0.35970124    -0.13700
C308        C  0.97147688  0.35444137  0.34045793    -0.13400
C309        C  0.97482213  0.33437472  0.31820785     0.25400
C310        C  0.01903938  0.33192181  0.30336127    -0.18800
C311        C  0.02475377  0.31063989  0.28378506    -0.07300
C312        C  0.98618061  0.29142939  0.27856554    -0.03400
C313        C  0.94118495  0.29466220  0.29284994    -0.08700
C314        C  0.93555261  0.31601039  0.31253675    -0.16300
H315        H  0.04910969  0.44202604  0.40727670     0.11800
H316        H  0.04284343  0.40938353  0.36817827     0.11100
H317        H  0.91030289  0.37372500  0.40334838     0.11100
H318        H  0.91647701  0.40647237  0.44249555     0.11600
H319        H  0.04983162  0.34584372  0.30761909     0.11700
H320        H  0.06033634  0.30840299  0.27371911     0.11600
H321        H  0.91075884  0.28032934  0.28925708     0.11800
H322        H  0.90109747  0.31767086  0.32387476     0.10600
C323        C  0.99976541  0.57323899  0.07458118    -0.03200
C324        C  0.03345872  0.57350402  0.09654314    -0.09000
C325        C  0.02894214  0.59346167  0.11755656    -0.16700
C326        C  0.99094949  0.61355904  0.11683187     0.25500
C327        C  0.95774941  0.61373220  0.09474539    -0.18300
C328        C  0.96212868  0.59369581  0.07374196    -0.07200
C329        C  0.98642795  0.63392628  0.13876129    -0.13700
C330        C  0.98515295  0.65064079  0.15748995    -0.13400
C331        C  0.98750493  0.67050907  0.17992801     0.25400
C332        C  0.94436657  0.67957462  0.19342668    -0.18800
C333        C  0.94729409  0.69923441  0.21487159    -0.07300
C334        C  0.99341363  0.70971975  0.22321856    -0.03400
C335        C  0.03638810  0.70081776  0.20931757    -0.08700
C336        C  0.03347915  0.68113780  0.18806556    -0.16300
H337        H  0.06294527  0.55806776  0.09750521     0.11800
H338        H  0.05500956  0.59315787  0.13443403     0.11100
H339        H  0.92832790  0.62922057  0.09384233     0.11100
H340        H  0.93583392  0.59389638  0.05698178     0.11600
H341        H  0.90850213  0.67173357  0.18716026     0.11700
H342        H  0.91363879  0.70659522  0.22467132     0.11600
H343        H  0.07216811  0.70945352  0.21470700     0.11800
H344        H  0.06707152  0.67453579  0.17768008     0.10600
C345        C  0.00151968  0.57156056  0.42897043    -0.03200
C346        C  0.97233350  0.59606071  0.42780391    -0.09000
C347        C  0.97990578  0.61596467  0.40689887    -0.16700
C348        C  0.01654915  0.61153256  0.38687342     0.25500
C349        C  0.04553522  0.58710938  0.38787803    -0.18300
C350        C  0.03820369  0.56730833  0.40881307    -0.07200
C351        C  0.02463719  0.63199418  0.36534004    -0.13700
C352        C  0.03127364  0.64914043  0.34732071    -0.13400
C353        C  0.03716962  0.67014995  0.32608632     0.25400
C354        C  0.03925257  0.66232172  0.29837828    -0.18800
C355        C  0.04022852  0.68291933  0.27771452    -0.07300
C356        C  0.03892695  0.71178271  0.28442902    -0.03400
C357        C  0.03924452  0.71923881  0.31251588    -0.08700
C358        C  0.03828205  0.69865927  0.33307127    -0.16300
H359        H  0.94365577  0.59967208  0.44300916     0.11800
H360        H  0.95716233  0.63476055  0.40632728     0.11100
H361        H  0.07390690  0.58339704  0.37250799     0.11100
H362        H  0.06110267  0.54857848  0.40930672     0.11600
H363        H  0.03891510  0.64026968  0.29269315     0.11700
H364        H  0.04135458  0.67589271  0.25670740     0.11600
H365        H  0.03779354  0.74103359  0.31886864     0.11800
H366        H  0.03679995  0.70504981  0.35443632     0.10600
N367        N  0.00261765  0.54437414  0.00250905    -0.36500
N368        N  0.98844952  0.49793619  0.54266845    -0.57000
N369        N  0.98523141  0.45485791  0.50022723    -0.36500
N370        N  0.00483702  0.50144903  0.95949034    -0.57000
C371        C  0.99426481  0.55726342  0.52360326     0.27100
C372        C  0.01455633  0.56041934  0.98039338     0.27100
C373        C  0.99874817  0.43901598  0.52218765     0.27100
C374        C  0.01055131  0.44178001  0.97801521     0.27100
C375        C  0.97741363  0.52032118  0.55874780     0.35700
C376        C  0.98261581  0.47472488  0.55854454     0.35700
C377        C  0.99820693  0.52477567  0.94392046     0.35700
C378        C  0.99386306  0.47918271  0.94327754     0.35700
C379        C  0.01383709  0.58316588  0.51613801    -0.21800
C380        C  0.03129364  0.58647841  0.98927962    -0.21800
C381        C  0.01614270  0.41315511  0.51306304    -0.21800
C382        C  0.02735846  0.41516692  0.98511125    -0.21800
C383        C  0.96412444  0.51123405  0.58486438    -0.22800
C384        C  0.96785313  0.48238709  0.58479295    -0.22800
C385        C  0.98330244  0.51726652  0.91768996    -0.22800
C386        C  0.98045303  0.48842216  0.91729838    -0.22800
C387        C  0.98358401  0.54885690  0.55090775    -0.18200
C388        C  0.00841386  0.55267342  0.95244671    -0.18200
C389        C  0.99906525  0.45056522  0.95093758    -0.18200
C390        C  0.99372054  0.44686421  0.55021439    -0.18200
H391        H  0.02481509  0.60011483  0.52966042     0.14700
H392        H  0.04346143  0.60400119  0.97671593     0.14700
H393        H  0.02947704  0.39581762  0.52547534     0.14700
H394        H  0.03505353  0.39775131  0.97141048     0.14700
H395        H  0.95379141  0.52404880  0.60234668     0.13000
H396        H  0.96071374  0.46861914  0.60211458     0.13000
H397        H  0.97542038  0.53112923  0.90056562     0.13000
H398        H  0.97031781  0.47570451  0.89975252     0.13000
H399        H  0.98434698  0.52515574  0.00213479     0.26300
H400        H  0.96637620  0.47391999  0.50082521     0.26300
C401        C  0.02898573  0.23560717  0.73453338     0.45600
H402        H  0.05729620  0.23417600  0.71805784    -0.03400
C403        C  0.96213785  0.23773393  0.77289804     0.45600
H404        H  0.93347885  0.23856494  0.78929074    -0.03400
C405        C  0.98104547  0.22023463  0.72699674    -0.17100
C406        C  0.04523425  0.22136414  0.76166100    -0.16900
C407        C  0.01297293  0.26588757  0.74163189    -0.17300
C408        C  0.94526174  0.22153008  0.74715070    -0.17200
C409        C  0.00916578  0.22214175  0.78179556    -0.16800
C410        C  0.98010316  0.26693353  0.76331819    -0.17100
N411        N  0.41898304  0.99985424  0.74178561    -0.36500
N412        N  0.49582019  0.04263134  0.74516841    -0.57000
N413        N  0.57135483  0.99870457  0.74235719    -0.36500
N414        N  0.49447799  0.95579242  0.74265120    -0.57000
C415        C  0.39167456  0.02271980  0.74883842     0.27100
C416        C  0.39097884  0.97677344  0.74698103     0.27100
C417        C  0.59972724  0.02140222  0.74820293     0.27100
C418        C  0.59892982  0.97543392  0.74745173     0.27100
C419        C  0.45601550  0.05958465  0.74179081     0.35700
C420        C  0.53625552  0.05900514  0.74147614     0.35700
C421        C  0.45423266  0.93984643  0.73724384     0.35700
C422        C  0.53442149  0.93917197  0.73826990     0.35700
C423        C  0.34575607  0.01405270  0.75843391    -0.21800
C424        C  0.34532888  0.98509081  0.75728665    -0.21800
C425        C  0.64610236  0.01246277  0.75672122    -0.21800
C426        C  0.64555250  0.98349546  0.75633858    -0.21800
C427        C  0.47124076  0.08684415  0.73605878    -0.22800
C428        C  0.52206170  0.08648277  0.73588442    -0.22800
C429        C  0.46873627  0.91302065  0.72932349    -0.22800
C430        C  0.51951281  0.91255712  0.73012428    -0.22800
C431        C  0.40624336  0.05122882  0.74571703    -0.18200
C432        C  0.40463490  0.94849125  0.74145233    -0.18200
C433        C  0.58404794  0.94716444  0.74307611    -0.18200
C434        C  0.58577311  0.04997544  0.74488896    -0.18200
H435        H  0.31561430  0.02723205  0.76552578     0.14700
H436        H  0.31479252  0.97168177  0.76335210     0.14700
H437        H  0.67721121  0.02546251  0.76258082     0.14700
H438        H  0.67619199  0.96993521  0.76184495     0.14700
H439        H  0.44815881  0.10515713  0.73266078     0.13000
H440        H  0.54584667  0.10447089  0.73235081     0.13000
H441        H  0.44522033  0.89546752  0.72387545     0.13000
H442        H  0.54278773  0.89463643  0.72537000     0.13000
H443        H  0.45245164  0.00007624  0.73127508     0.26300
H444        H  0.53712252  0.99916250  0.73275233     0.26300
C445        C  0.02908751  0.76271260  0.76821463     0.45600
H446        H  0.05794406  0.76354595  0.78439519    -0.03400
C447        C  0.96117279  0.76146182  0.73056459     0.45600
H448        H  0.93227297  0.76112176  0.71439095    -0.03400
C449        C  0.98113242  0.77771024  0.77665685    -0.17100
C450        C  0.04439540  0.77765015  0.74130767    -0.16900
C451        C  0.01297695  0.73274568  0.76040647    -0.17300
C452        C  0.94482926  0.77689748  0.75690711    -0.17200
C453        C  0.00790730  0.77726061  0.72161541    -0.16800
C454        C  0.97940487  0.73213085  0.73926607    -0.15100
O455        O  0.95831848  0.02765028  0.52923020    -0.71600
O456        O  0.95698528  0.97164047  0.97296511    -0.71900
O457        O  0.95904395  0.97114010  0.52647491    -0.71700
O458        O  0.96049480  0.02830232  0.97588319    -0.71700
O459        O  0.04065314  0.02608674  0.97337304    -0.71700
O460        O  0.03893980  0.97338806  0.53066442    -0.71700
O461        O  0.03721276  0.96940187  0.97130141    -0.71700
O462        O  0.03857722  0.02997406  0.52992587    -0.71800
V463        V  0.96228076  0.99807809  0.00175137     1.35200
V464        V  0.03941187  0.99690851  0.99977187     1.35200
C465        C  0.99714616  0.03847660  0.53892316     0.77600
C466        C  0.99560085  0.96083336  0.96280193     0.77600
C467        C  0.99842839  0.96211776  0.53746979     0.77500
C468        C  0.00075307  0.03768301  0.96606840     0.77500
C469        C  0.00733121  0.79482716  0.69647304    -0.03200
C470        C  0.96600058  0.81203644  0.69147381    -0.09000
C471        C  0.96481322  0.82972362  0.66869051    -0.16700
C472        C  0.00477925  0.83034274  0.65046730     0.25500
C473        C  0.04596669  0.81296523  0.65493966    -0.18300
C474        C  0.04724069  0.79517117  0.67791632    -0.07200
C475        C  0.00394396  0.85004797  0.62814826    -0.13700
C476        C  0.00175295  0.86840762  0.61115993    -0.13400
C477        C  0.00024327  0.89186652  0.59261900     0.25400
C478        C  0.04332701  0.90737221  0.58787056    -0.18800
C479        C  0.04233937  0.93053025  0.57026173    -0.07300
C480        C  0.99809865  0.93853279  0.55721132    -0.03400
C481        C  0.95471812  0.92303493  0.56232594    -0.08700
C482        C  0.95583013  0.89976387  0.57998709    -0.16300
H483        H  0.93493290  0.81235812  0.70552216     0.11800
H484        H  0.93300254  0.84326029  0.66552719     0.11100
H485        H  0.07720334  0.81345994  0.64092754     0.11100
H486        H  0.07929310  0.78193031  0.68135144     0.11600
H487        H  0.07773866  0.90153299  0.59775987     0.11700
H488        H  0.07635166  0.94206404  0.56674740     0.11600
H489        H  0.92022588  0.92867592  0.55245433     0.11800
H490        H  0.92219435  0.88793628  0.58374631     0.10600
C491        C  0.99147464  0.93812006  0.94224240    -0.03200
C492        C  0.94469467  0.92686325  0.93589737    -0.09000
C493        C  0.94033012  0.90459218  0.91739575    -0.16700
C494        C  0.98257432  0.89331919  0.90495823     0.25500
C495        C  0.02930903  0.90439996  0.91102154    -0.18300
C496        C  0.03380512  0.92666296  0.92963882    -0.07200
C497        C  0.97783304  0.87085382  0.88545358    -0.13700
C498        C  0.97539135  0.85288406  0.86810984    -0.13400
C499        C  0.97662510  0.83301876  0.84594320     0.25400
C500        C  0.01692149  0.83337522  0.82788824    -0.18800
C501        C  0.01855166  0.81481578  0.80580343    -0.07300
C502        C  0.97965223  0.79581054  0.80133834    -0.03400
C503        C  0.93934571  0.79527329  0.81963624    -0.08700
C504        C  0.93785877  0.81386971  0.84193478    -0.16300
H505        H  0.91141787  0.93509051  0.94542435     0.11800
H506        H  0.90401700  0.89619474  0.91277419     0.11100
H507        H  0.06222538  0.89583676  0.90136149     0.11100
H508        H  0.07026681  0.93483179  0.93421485     0.11600
H509        H  0.04692154  0.84821708  0.83073489     0.11700
H510        H  0.04969107  0.81585227  0.79180182     0.11600
H511        H  0.90906350  0.78070937  0.81649176     0.11800
H512        H  0.90645261  0.81350273  0.85583318     0.10600
C513        C  0.08934509  0.79563389  0.74007222    -0.03200
C514        C  0.13601253  0.78423708  0.74617764    -0.09000
C515        C  0.17821421  0.80141505  0.74596396    -0.16700
C516        C  0.17400816  0.83021528  0.73995098     0.25500
C517        C  0.12741279  0.84172129  0.73430054    -0.18300
C518        C  0.08534292  0.82461955  0.73453977    -0.07200
C519        C  0.21699687  0.84826250  0.74000501    -0.13700
C520        C  0.25120900  0.86464529  0.74000778    -0.13400
C521        C  0.29032540  0.88534803  0.74008673     0.25400
C522        C  0.29031279  0.90724020  0.72071825    -0.18800
C523        C  0.32744899  0.92777749  0.72117696    -0.07300
C524        C  0.36503596  0.92665584  0.74103622    -0.03400
C525        C  0.36485180  0.90467713  0.76043783    -0.08700
C526        C  0.32775341  0.88411794  0.75992331    -0.16300
H527        H  0.13972859  0.76205684  0.75100718     0.11800
H528        H  0.21399342  0.79228644  0.75060434     0.11100
H529        H  0.12352234  0.86400329  0.72996133     0.11100
H530        H  0.04953605  0.83413423  0.73085204     0.11600
H531        H  0.26148380  0.90849660  0.70533313     0.11700
H532        H  0.32698118  0.94454499  0.70605175     0.11600
H533        H  0.39341111  0.90352438  0.77597569     0.11800
H534        H  0.32809414  0.86737667  0.77508311     0.10600
C535        C  0.62243521  0.92466501  0.74445418    -0.03200
C536        C  0.62304347  0.90558077  0.76656588    -0.09000
C537        C  0.66043915  0.88521713  0.76851425    -0.16700
C538        C  0.69749285  0.88365312  0.74832622     0.25500
C539        C  0.69652585  0.90237388  0.72601834    -0.18300
C540        C  0.65925033  0.92278176  0.72409481    -0.07200
C541        C  0.73731082  0.86346984  0.75080159    -0.13700
C542        C  0.77199220  0.84745929  0.75258803    -0.13400
C543        C  0.81502456  0.82946163  0.75438509     0.25400
C544        C  0.86125086  0.84115169  0.76048340    -0.18800
C545        C  0.90331301  0.82403221  0.76164084    -0.07300
C546        C  0.89967109  0.79484379  0.75712167    -0.03400
C547        C  0.85339670  0.78326849  0.75060029    -0.08700
C548        C  0.81122824  0.80046177  0.74939199    -0.16300
H549        H  0.59498844  0.90677654  0.78248244     0.11800
H550        H  0.66076262  0.87092039  0.78589604     0.11100
H551        H  0.72493340  0.90140907  0.71027375     0.11100
H552        H  0.65930650  0.93730072  0.70689699     0.11600
H553        H  0.86491140  0.86358299  0.76398840     0.11700
H554        H  0.93889204  0.83371479  0.76545870     0.11600
H555        H  0.84997867  0.76095128  0.74643972     0.11800
H556        H  0.77578057  0.79118721  0.74436932     0.10600
C557        C  0.97918491  0.20153322  0.70261501    -0.03200
C558        C  0.01994279  0.18410423  0.69681777    -0.09000
C559        C  0.01876876  0.16557030  0.67469339    -0.16700
C560        C  0.97687116  0.16414345  0.65802891     0.25500
C561        C  0.93600717  0.18149088  0.66347168    -0.18300
C562        C  0.93720231  0.20023106  0.68567015    -0.07200
C563        C  0.97627348  0.14436377  0.63576503    -0.13700
C564        C  0.97913619  0.12668768  0.61813624    -0.13400
C565        C  0.98400206  0.10464574  0.59816154     0.25400
C566        C  0.94250394  0.08890835  0.59073605    -0.18800
C567        C  0.94708896  0.06716719  0.57166241    -0.07300
C568        C  0.99336967  0.06081426  0.55984214    -0.03400
C569        C  0.03504876  0.07658383  0.56755581    -0.08700
C570        C  0.03031902  0.09844481  0.58662574    -0.16300
H571        H  0.05244056  0.18430984  0.70975674     0.11800
H572        H  0.05042996  0.15212075  0.67074448     0.11100
H573        H  0.90331542  0.18044817  0.65067858     0.11100
H574        H  0.90545351  0.21354992  0.68971177     0.11600
H575        H  0.90659224  0.09344130  0.59968621     0.11700
H576        H  0.91432814  0.05535102  0.56614730     0.11600
H577        H  0.07104845  0.07222836  0.55866286     0.11800
H578        H  0.06271020  0.11048987  0.59237237     0.10600
C579        C  0.00945917  0.20563395  0.80775425    -0.03200
C580        C  0.96755578  0.18952832  0.81468509    -0.09000
C581        C  0.96729136  0.17267245  0.83813154    -0.16700
C582        C  0.00882935  0.17166891  0.85509962     0.25500
C583        C  0.05036277  0.18822683  0.84888539    -0.18300
C584        C  0.05062894  0.20526495  0.82531637    -0.07200
C585        C  0.00943699  0.15202040  0.87759753    -0.13700
C586        C  0.00792923  0.13349224  0.89452424    -0.13400
C587        C  0.00574784  0.10975300  0.91286335     0.25400
C588        C  0.04957564  0.09734312  0.92209898    -0.18800
C589        C  0.04776969  0.07366228  0.93910788    -0.07300
C590        C  0.00199804  0.06206979  0.94716171    -0.03400
C591        C  0.95806632  0.07461309  0.93772917    -0.08700
C592        C  0.95998290  0.09830513  0.92059906    -0.16300
H593        H  0.93534227  0.18925900  0.80155935     0.11800
H594        H  0.93508010  0.15985574  0.84264720     0.11100
H595        H  0.08277709  0.18753987  0.86191512     0.11100
H596        H  0.08304434  0.21778225  0.82057991     0.11600
H597        H  0.08516994  0.10591087  0.91607587     0.11700
H598        H  0.08228015  0.06456095  0.94610991     0.11600
H599        H  0.92234250  0.06616197  0.94360805     0.11800
H600        H  0.92582512  0.10764389  0.91333893     0.10600
C601        C  0.90089490  0.20300407  0.74802626    -0.03200
C602        C  0.85373344  0.21427853  0.75319586    -0.09000
C603        C  0.81209918  0.19663288  0.75401553    -0.16700
C604        C  0.81738574  0.16751985  0.75001839     0.25500
C605        C  0.86458748  0.15613804  0.74574112    -0.18300
C606        C  0.90605516  0.17369571  0.74494954    -0.07200
C607        C  0.77471356  0.14917989  0.74994647    -0.13700
C608        C  0.74047006  0.13280887  0.74924352    -0.13400
C609        C  0.70087635  0.11240268  0.74800120     0.25400
C610        C  0.69343822  0.09664779  0.72400916    -0.18800
C611        C  0.65588853  0.07636565  0.72298104    -0.07300
C612        C  0.62526390  0.07173056  0.74590317    -0.03400
C613        C  0.63257638  0.08763481  0.76985347    -0.08700
C614        C  0.67028462  0.10782834  0.77091075    -0.16300
H615        H  0.84912793  0.23672635  0.75621346     0.11800
H616        H  0.77583685  0.20569258  0.75759082     0.11100
H617        H  0.86935126  0.13366085  0.74295276     0.11100
H618        H  0.94228603  0.16437312  0.74202978     0.11600
H619        H  0.71684725  0.09992440  0.70616244     0.11700
H620        H  0.65066929  0.06425511  0.70436483     0.11600
H621        H  0.60930763  0.08422967  0.78772557     0.11800
H622        H  0.67571885  0.11977501  0.78961248     0.10600
C623        C  0.09120376  0.20402573  0.76267032    -0.03200
C624        C  0.13646953  0.21556693  0.75390182    -0.09000
C625        C  0.17918262  0.19880244  0.75249290    -0.16700
C626        C  0.17706808  0.17019408  0.75961365     0.25500
C627        C  0.13204597  0.15860999  0.76843675    -0.18300
C628        C  0.08936822  0.17530698  0.76975896    -0.07200
C629        C  0.22027852  0.15232789  0.75693606    -0.13700
C630        C  0.25463669  0.13610347  0.75456242    -0.13400
C631        C  0.29382424  0.11544931  0.75189482     0.25400
C632        C  0.32892700  0.11217228  0.77282775    -0.18800
C633        C  0.36561864  0.09139135  0.77075564    -0.07300
C634        C  0.36754496  0.07355356  0.74775686    -0.03400
C635        C  0.33249294  0.07698033  0.72674985    -0.08700
C636        C  0.29593096  0.09784953  0.72878404    -0.16300
H637        H  0.13858656  0.23751169  0.74788482     0.11800
H638        H  0.21362167  0.20804839  0.74545808     0.11100
H639        H  0.12967806  0.13647861  0.77373946     0.11100
H640        H  0.05465361  0.16555816  0.77555280     0.11600
H641        H  0.32768749  0.12551908  0.79085869     0.11700
H642        H  0.39230571  0.08902530  0.78716674     0.11600
H643        H  0.33348069  0.06346540  0.70883936     0.11800
H644        H  0.26901929  0.10007832  0.71245960     0.10600
C645        C  0.00258955  0.42526675  0.57207846    -0.03200
C646        C  0.04307148  0.42807435  0.58996198    -0.09000
C647        C  0.05111461  0.40838078  0.61098595    -0.16700
C648        C  0.01874963  0.38559785  0.61453301     0.25500
C649        C  0.97841454  0.38259949  0.59664303    -0.18300
C650        C  0.97041407  0.40226923  0.57552472    -0.07200
C651        C  0.02600234  0.36588559  0.63700449    -0.13700
C652        C  0.02982518  0.34978252  0.65626895    -0.13400
C653        C  0.02951844  0.33068936  0.67959380     0.25400
C654        C  0.98983325  0.33141895  0.69810080    -0.18800
C655        C  0.98594615  0.31134331  0.71906903    -0.07300
C656        C  0.02220662  0.29021703  0.72239770    -0.03400
C657        C  0.06344233  0.29055004  0.70451935    -0.08700
C658        C  0.06685232  0.31047839  0.68318340    -0.16300
H659        H  0.06831383  0.44563971  0.58767392     0.11800
H660        H  0.08234806  0.41108057  0.62463666     0.11100
H661        H  0.95289383  0.36519082  0.59916472     0.11100
H662        H  0.93886942  0.39976878  0.56206771     0.11600
H663        H  0.96063739  0.34687087  0.69564613     0.11700
H664        H  0.95291755  0.31159700  0.73167676     0.11600
H665        H  0.09261673  0.27507928  0.70650672     0.11800
H666        H  0.09801250  0.30968765  0.66912874     0.10600
C667        C  0.99311337  0.42880306  0.92920714    -0.03200
C668        C  0.03166779  0.42325544  0.91055782    -0.09000
C669        C  0.02460937  0.40428421  0.88888709    -0.16700
C670        C  0.97887997  0.39077141  0.88552044     0.25500
C671        C  0.94046763  0.39608668  0.90426682    -0.18300
C672        C  0.94757254  0.41497685  0.92601554    -0.07200
C673        C  0.97172536  0.37144746  0.86289848    -0.13700
C674        C  0.96847397  0.35502419  0.84398145    -0.13400
C675        C  0.96918540  0.33476821  0.82178749     0.25400
C676        C  0.01312613  0.33026108  0.80712801    -0.18800
C677        C  0.01582916  0.30911559  0.78721404    -0.07300
C678        C  0.97448845  0.29208353  0.78149452    -0.03400
C679        C  0.92999827  0.29722419  0.79573686    -0.08700
C680        C  0.92734418  0.31847272  0.81572495    -0.16300
H681        H  0.06690609  0.43389177  0.91261745     0.11800
H682        H  0.05468096  0.40033727  0.87460975     0.11100
H683        H  0.90494970  0.38580008  0.90196258     0.11100
H684        H  0.91732717  0.41923108  0.94008181     0.11600
H685        H  0.04585533  0.34255486  0.81167871     0.11700
H686        H  0.05098555  0.30530057  0.77713083     0.11600
H687        H  0.89758871  0.28447680  0.79178755     0.11800
H688        H  0.89306613  0.32170808  0.82690166     0.10600
C689        C  0.98083427  0.57095503  0.57253517    -0.03200
C690        C  0.01534168  0.57138568  0.59406414    -0.09000
C691        C  0.01123774  0.59131624  0.61509354    -0.16700
C692        C  0.97273877  0.61110442  0.61480523     0.25500
C693        C  0.93891240  0.61121396  0.59302138    -0.18300
C694        C  0.94297696  0.59125783  0.57195847    -0.07200
C695        C  0.96785192  0.63095132  0.63709163    -0.13700
C696        C  0.96581635  0.64712107  0.65621427    -0.13400
C697        C  0.96705874  0.66646926  0.67905266     0.25400
C698        C  0.92537779  0.68258662  0.68600045    -0.18800
C699        C  0.92831555  0.70290170  0.70681773    -0.07300
C700        C  0.97294797  0.70725961  0.72096707    -0.03400
C701        C  0.01403739  0.69022300  0.71448189    -0.08700
C702        C  0.01106700  0.67002574  0.69370348    -0.16300
H703        H  0.04500665  0.55604142  0.59471962     0.11800
H704        H  0.03779830  0.59111210  0.63173251     0.11100
H705        H  0.90912441  0.62649330  0.59248018     0.11100
H706        H  0.91616845  0.59130650  0.55544908     0.11600
H707        H  0.89103395  0.67997669  0.67486294     0.11700
H708        H  0.89610649  0.71567163  0.71137147     0.11600
H709        H  0.04930887  0.69348054  0.72448914     0.11800
H710        H  0.04362086  0.65777418  0.68848838     0.10600
C711        C  0.01454277  0.57463597  0.93071684    -0.03200
C712        C  0.98204564  0.59771458  0.92913379    -0.09000
C713        C  0.98688157  0.61750568  0.90786707    -0.16700
C714        C  0.02418274  0.61441328  0.88795557     0.25500
C715        C  0.05696082  0.59162770  0.88966994    -0.18300
C716        C  0.05226318  0.57191504  0.91092239    -0.07200
C717        C  0.02793502  0.63399715  0.86526439    -0.13700
C718        C  0.02963664  0.64983751  0.84578732    -0.13400
C719        C  0.02801548  0.66867633  0.82243896     0.25400
C720        C  0.98442530  0.67088929  0.80716489    -0.18800
C721        C  0.98075856  0.69057381  0.78589430    -0.07300
C722        C  0.02072613  0.70846863  0.77945813    -0.03400
C723        C  0.06508487  0.70545736  0.79423990    -0.08700
C724        C  0.06872316  0.68563548  0.81558029    -0.16300
H725        H  0.95261143  0.60013506  0.94412058     0.11800
H726        H  0.96117577  0.63499375  0.90675250     0.11100
H727        H  0.08585651  0.58892715  0.87440201     0.11100
H728        H  0.07768849  0.55428745  0.91178842     0.11600
H729        H  0.95261364  0.65799118  0.81226913     0.11700
H730        H  0.94563910  0.69275712  0.77544691     0.11600
H731        H  0.09647756  0.71888165  0.78976419     0.11800
H732        H  0.10277940  0.68407040  0.82717782     0.10600
loop_ 
_geom_bond_atom_site_label_1 
_geom_bond_atom_site_label_2 
_geom_bond_distance 
_geom_bond_site_symmetry_2 
_ccdc_geom_bond_type 
N1            C6   1.355       .  A
N1          C371   1.353       .  A
N1           H33   1.039       .  S
N2            C9   1.354   1_455  A
N2           C10   1.353       .  A
N3            C7   1.355       .  A
N3          C374   1.354   1_554  A
N3           H34   1.037   1_455  S
N4           C11   1.353       .  A
N4           C12   1.352       .  A
C5          N367   1.354       .  A
C5           C13   1.386       .  A
C5           C21   1.417       .  A
C6           C22   1.418       .  A
C6           C14   1.387   1_655  A
C7           C15   1.388       .  A
C7           C24   1.420       .  A
C8          N369   1.354       .  A
C8           C23   1.417       .  A
C8           C16   1.386   1_655  A
C9           C21   1.417   1_655  A
C9           C17   1.387       .  A
C10          C24   1.416       .  A
C10          C18   1.386   1_455  A
C11          C19   1.385       .  A
C11          C22   1.413       .  A
C12          C20   1.387       .  A
C12          C23   1.415       .  A
C13         C380   1.377   1_554  A
C13          H25   1.082       .  S
C14         C379   1.377       .  A
C14          H26   1.082       .  S
C15         C382   1.378   1_554  A
C15          H27   1.082       .  S
C16         C381   1.379       .  A
C16          H28   1.082       .  S
C17          C18   1.372       .  A
C17          H29   1.082       .  S
C18          H30   1.082       .  S
C19          C20   1.371       .  A
C19          H31   1.082       .  S
C20          H32   1.082       .  S
C21         C323   1.494   1_455  S
C22         C345   1.493   1_655  S
C23         C301   1.489       .  S
C24         C279   1.492       .  S
C35          H36   1.110       .  S
C35          C41   1.536       .  S
C35          C40   1.544       .  S
C35          C39   1.533       .  S
C37          H38   1.110       .  S
C37          C43   1.533   1_655  S
C37          C42   1.544       .  S
C37          C44   1.537       .  S
C39          C42   1.379   1_455  D
C39         C191   1.487       .  S
C40          C43   1.379       .  D
C40         C257   1.486       .  S
C41          C44   1.372   1_455  D
C41         C290   1.492       .  S
C42         C235   1.487       .  S
C43         C213   1.486       .  S
C44         C312   1.495       .  S
N45          C50   1.353       .  A
N45          C49   1.354   1_565  A
N45          H77   1.041       .  S
N46          C53   1.352       .  A
N46          C54   1.352       .  A
N47          C52   1.355       .  A
N47          C51   1.354   1_565  A
N47          H78   1.040       .  S
N48          C55   1.352       .  A
N48          C56   1.352       .  A
C49          C57   1.387       .  A
C49          C65   1.414       .  A
C50          C66   1.416       .  A
C50          C58   1.387       .  A
C51          C59   1.386       .  A
C51          C68   1.415       .  A
C52          C67   1.417       .  A
C52          C60   1.387       .  A
C53          C65   1.412       .  A
C53          C61   1.386       .  A
C54          C68   1.413       .  A
C54          C62   1.386       .  A
C55          C63   1.387       .  A
C55          C66   1.414       .  A
C56          C64   1.385       .  A
C56          C67   1.413       .  A
C57          C58   1.375   1_545  A
C57          H69   1.082       .  S
C58          H70   1.082       .  S
C59          C60   1.375   1_545  A
C59          H71   1.082       .  S
C60          H72   1.082       .  S
C61          C62   1.375       .  A
C61          H73   1.082       .  S
C62          H74   1.082       .  S
C63          C64   1.374       .  A
C63          H75   1.082       .  S
C64          H76   1.082       .  S
C65         C268   1.485       .  S
C66         C158   1.489       .  S
C67         C169   1.492       .  S
C68         C246   1.487       .  S
C79          H80   1.111       .  S
C79          C85   1.540       .  S
C79          C84   1.539       .  S
C79          C83   1.532       .  S
C81          H82   1.112       .  S
C81          C87   1.531   1_655  S
C81          C86   1.540       .  S
C81          C88   1.536       .  S
C83          C86   1.374   1_455  D
C83         C136   1.478       .  S
C84          C87   1.376       .  D
C84         C147   1.483       .  S
C85          C88   1.379   1_455  D
C85         C356   1.502       .  S
C86         C180   1.487       .  S
C87         C103   1.479       .  S
C88         C334   1.483       .  S
O89          C99   1.262   1_655  A
O89         V463   1.889   1_545  S
O90         C100   1.262   1_655  A
O90          V97   1.886   1_565  S
O91         C101   1.267   1_655  A
O91         V463   1.906       .  S
O92         C102   1.267   1_655  A
O92          V97   1.908       .  S
O93         C102   1.262       .  A
O93          V98   1.886       .  S
O94         C101   1.262       .  A
O94         V464   1.886   1_554  S
O95         C100   1.267       .  A
O95          V98   1.905   1_565  S
O96          C99   1.267       .  A
O96         V464   1.907   1_544  S
V97         O455   1.886       .  S
V97         O457   1.905   1_545  S
V97          V98   2.085   1_655  T
V98         O460   1.885   1_545  S
V98         O462   1.905       .  S
C99         C202   1.478       .  S
C100        C125   1.475       .  S
C101        C114   1.476       .  S
C102        C224   1.477       .  S
C103        C104   1.404   1_455  A
C103        C108   1.405       .  A
C104        C105   1.391       .  A
C104        H117   1.082       .  S
C105        C106   1.396   1_655  A
C105        H118   1.084       .  S
C106        C107   1.402       .  A
C106        C109   1.434       .  S
C107        C108   1.400       .  A
C107        H119   1.083       .  S
C108        H120   1.083       .  S
C109        C110   1.203       .  T
C110        C111   1.434       .  S
C111        C112   1.396       .  A
C111        C116   1.401   1_455  A
C112        C113   1.394       .  A
C112        H121   1.084       .  S
C113        C114   1.407       .  A
C113        H122   1.083       .  S
C114        C115   1.406   1_455  A
C115        C116   1.399       .  A
C115        H123   1.083       .  S
C116        H124   1.084       .  S
C125        C126   1.408   1_455  A
C125        C130   1.405       .  A
C126        C127   1.394       .  A
C126        H139   1.083       .  S
C127        C128   1.397   1_655  A
C127        H140   1.084       .  S
C128        C129   1.400       .  A
C128        C131   1.433       .  S
C129        C130   1.398       .  A
C129        H141   1.083       .  S
C130        H142   1.083       .  S
C131        C132   1.202       .  T
C132        C133   1.433       .  S
C133        C134   1.397       .  A
C133        C138   1.401   1_455  A
C134        C135   1.393       .  A
C134        H143   1.084       .  S
C135        C136   1.404       .  A
C135        H144   1.083       .  S
C136        C137   1.404   1_455  A
C137        C138   1.398       .  A
C137        H145   1.083       .  S
C138        H146   1.083       .  S
C147        C148   1.404       .  A
C147        C152   1.406       .  A
C148        C149   1.400       .  A
C148        H161   1.083       .  S
C149        C150   1.401       .  A
C149        H162   1.083       .  S
C150        C151   1.399       .  A
C150        C153   1.440       .  S
C151        C152   1.397       .  A
C151        H163   1.084       .  S
C152        H164   1.083       .  S
C153        C154   1.206       .  T
C154        C155   1.440       .  S
C155        C156   1.400       .  A
C155        C160   1.400       .  A
C156        C157   1.398       .  A
C156        H165   1.083       .  S
C157        C158   1.405       .  A
C157        H166   1.083       .  S
C158        C159   1.406       .  A
C159        C160   1.399       .  A
C159        H167   1.083       .  S
C160        H168   1.083       .  S
C169        C170   1.406       .  A
C169        C174   1.405       .  A
C170        C171   1.402       .  A
C170        H183   1.083       .  S
C171        C172   1.402       .  A
C171        H184   1.083       .  S
C172        C173   1.402       .  A
C172        C175   1.446       .  S
C173        C174   1.400       .  A
C173        H185   1.083       .  S
C174        H186   1.083       .  S
C175        C176   1.210       .  T
C176        C177   1.446       .  S
C177        C178   1.400       .  A
C177        C182   1.403       .  A
C178        C179   1.399       .  A
C178        H187   1.083       .  S
C179        C180   1.407       .  A
C179        H188   1.083       .  S
C180        C181   1.403       .  A
C181        C182   1.403       .  A
C181        H189   1.083       .  S
C182        H190   1.083       .  S
C191        C192   1.406       .  A
C191        C196   1.406   1_455  A
C192        C193   1.393       .  A
C192        H205   1.081       .  S
C193        C194   1.396       .  A
C193        H206   1.084       .  S
C194        C195   1.403   1_455  A
C194        C197   1.438       .  S
C195        C196   1.402       .  A
C195        H207   1.083       .  S
C196        H208   1.083       .  S
C197        C198   1.205       .  T
C198        C199   1.439       .  S
C199        C200   1.397   1_455  A
C199        C204   1.402       .  A
C200        C201   1.395       .  A
C200        H209   1.084       .  S
C201        C202   1.407   1_655  A
C201        H210   1.083       .  S
C202        C203   1.406       .  A
C203        C204   1.401       .  A
C203        H211   1.083       .  S
C204        H212   1.083       .  S
C213        C214   1.406   1_455  A
C213        C218   1.406       .  A
C214        C215   1.391       .  A
C214        H227   1.081       .  S
C215        C216   1.395   1_655  A
C215        H228   1.084       .  S
C216        C217   1.402       .  A
C216        C219   1.437       .  S
C217        C218   1.402       .  A
C217        H229   1.083       .  S
C218        H230   1.083       .  S
C219        C220   1.204       .  T
C220        C221   1.437       .  S
C221        C222   1.396       .  A
C221        C226   1.402   1_455  A
C222        C223   1.395       .  A
C222        H231   1.084       .  S
C223        C224   1.408       .  A
C223        H232   1.083       .  S
C224        C225   1.406   1_455  A
C225        C226   1.400       .  A
C225        H233   1.083       .  S
C226        H234   1.083       .  S
C235        C236   1.403       .  A
C235        C240   1.407       .  A
C236        C237   1.402       .  A
C236        H249   1.083       .  S
C237        C238   1.402       .  A
C237        H250   1.083       .  S
C238        C239   1.400       .  A
C238        C241   1.445       .  S
C239        C240   1.399       .  A
C239        H251   1.083       .  S
C240        H252   1.083       .  S
C241        C242   1.209       .  T
C242        C243   1.445       .  S
C243        C244   1.401       .  A
C243        C248   1.402       .  A
C244        C245   1.399       .  A
C244        H253   1.083       .  S
C245        C246   1.404       .  A
C245        H254   1.083       .  S
C246        C247   1.405       .  A
C247        C248   1.401       .  A
C247        H255   1.083       .  S
C248        H256   1.083       .  S
C257        C258   1.404       .  A
C257        C262   1.407       .  A
C258        C259   1.401       .  A
C258        H271   1.083       .  S
C259        C260   1.402       .  A
C259        H272   1.083       .  S
C260        C261   1.399       .  A
C260        C263   1.443       .  S
C261        C262   1.397       .  A
C261        H273   1.083       .  S
C262        H274   1.083       .  S
C263        C264   1.208       .  T
C264        C265   1.443       .  S
C265        C266   1.401       .  A
C265        C270   1.402       .  A
C266        C267   1.399       .  A
C266        H275   1.083       .  S
C267        C268   1.403       .  A
C267        H276   1.083       .  S
C268        C269   1.404       .  A
C269        C270   1.400       .  A
C269        H277   1.083       .  S
C270        H278   1.083       .  S
C279        C280   1.406       .  A
C279        C284   1.405   1_455  A
C280        C281   1.400       .  A
C280        H293   1.083       .  S
C281        C282   1.401       .  A
C281        H294   1.083       .  S
C282        C283   1.403   1_455  A
C282        C285   1.445       .  S
C283        C284   1.401       .  A
C283        H295   1.083       .  S
C284        H296   1.083       .  S
C285        C286   1.209       .  T
C286        C287   1.445       .  S
C287        C288   1.398   1_455  A
C287        C292   1.403       .  A
C288        C289   1.396       .  A
C288        H297   1.084       .  S
C289        C290   1.408   1_655  A
C289        H298   1.083       .  S
C290        C291   1.406       .  A
C291        C292   1.404       .  A
C291        H299   1.083       .  S
C292        H300   1.083       .  S
C301        C302   1.405   1_655  A
C301        C306   1.404       .  A
C302        C303   1.399       .  A
C302        H315   1.083       .  S
C303        C304   1.401   1_455  A
C303        H316   1.083       .  S
C304        C305   1.402       .  A
C304        C307   1.446       .  S
C305        C306   1.402       .  A
C305        H317   1.083       .  S
C306        H318   1.083       .  S
C307        C308   1.210       .  T
C308        C309   1.446       .  S
C309        C310   1.399   1_655  A
C309        C314   1.402       .  A
C310        C311   1.398       .  A
C310        H319   1.084       .  S
C311        C312   1.409   1_455  A
C311        H320   1.083       .  S
C312        C313   1.407       .  A
C313        C314   1.403       .  A
C313        H321   1.082       .  S
C314        H322   1.083       .  S
C323        C324   1.406   1_655  A
C323        C328   1.406       .  A
C324        C325   1.400       .  A
C324        H337   1.083       .  S
C325        C326   1.401   1_455  A
C325        H338   1.083       .  S
C326        C327   1.402       .  A
C326        C329   1.446       .  S
C327        C328   1.402       .  A
C327        H339   1.083       .  S
C328        H340   1.083       .  S
C329        C330   1.210       .  T
C330        C331   1.445       .  S
C331        C332   1.403       .  A
C331        C336   1.400   1_655  A
C332        C333   1.403       .  A
C332        H341   1.083       .  S
C333        C334   1.404       .  A
C333        H342   1.083       .  S
C334        C335   1.407   1_655  A
C335        C336   1.397       .  A
C335        H343   1.083       .  S
C336        H344   1.084       .  S
C345        C346   1.406   1_455  A
C345        C350   1.406       .  A
C346        C347   1.402       .  A
C346        H359   1.083       .  S
C347        C348   1.402   1_655  A
C347        H360   1.083       .  S
C348        C349   1.400       .  A
C348        C351   1.444       .  S
C349        C350   1.398       .  A
C349        H361   1.083       .  S
C350        H362   1.083       .  S
C351        C352   1.208       .  T
C352        C353   1.443       .  S
C353        C354   1.400       .  A
C353        C358   1.396       .  A
C354        C355   1.401       .  A
C354        H363   1.083       .  S
C355        C356   1.410       .  A
C355        H364   1.076       .  S
C356        C357   1.412       .  A
C357        C358   1.397       .  A
C357        H365   1.081       .  S
C358        H366   1.084       .  S
N367        C372   1.355   1_554  A
N367        H399   1.038   1_455  S
N368        C375   1.353       .  A
N368        C376   1.354       .  A
N369        C373   1.356       .  A
N369        H400   1.039       .  S
N370        C377   1.353   1_455  A
N370        C378   1.354   1_455  A
C371        C379   1.386   1_655  A
C371        C387   1.415       .  A
C372        C388   1.419       .  A
C372        C380   1.388       .  A
C373        C381   1.387   1_655  A
C373        C390   1.420       .  A
C374        C389   1.416   1_455  A
C374        C382   1.386       .  A
C375        C387   1.417       .  A
C375        C383   1.387       .  A
C376        C390   1.416       .  A
C376        C384   1.385       .  A
C377        C385   1.386       .  A
C377        C388   1.416   1_655  A
C378        C386   1.386       .  A
C378        C389   1.415       .  A
C379        H391   1.082       .  S
C380        H392   1.082       .  S
C381        H393   1.082       .  S
C382        H394   1.082       .  S
C383        C384   1.373       .  A
C383        H395   1.082       .  S
C384        H396   1.082       .  S
C385        C386   1.372       .  A
C385        H397   1.082       .  S
C386        H398   1.082       .  S
C387        C689   1.489       .  S
C388        C711   1.492       .  S
C389        C667   1.489       .  S
C390        C645   1.496   1_655  S
C401        H402   1.108       .  S
C401        C407   1.540       .  S
C401        C406   1.546       .  S
C401        C405   1.533   1_455  S
C403        H404   1.110       .  S
C403        C409   1.533   1_655  S
C403        C408   1.541       .  S
C403        C410   1.540       .  S
C405        C408   1.376       .  D
C405        C557   1.484       .  S
C406        C409   1.380       .  D
C406        C623   1.490       .  S
C407        C410   1.377   1_455  D
C407        C656   1.506       .  S
C408        C601   1.488       .  S
C409        C579   1.485       .  S
C410        C678   1.494       .  S
N411        C416   1.355       .  A
N411        C415   1.356   1_565  A
N411        H443   1.037   1_565  S
N412        C419   1.353       .  A
N412        C420   1.353       .  A
N413        C418   1.355       .  A
N413        C417   1.354   1_565  A
N413        H444   1.038       .  S
N414        C421   1.352       .  A
N414        C422   1.353       .  A
C415        C423   1.386       .  A
C415        C431   1.418       .  A
C416        C432   1.418       .  A
C416        C424   1.387       .  A
C417        C425   1.387       .  A
C417        C434   1.417       .  A
C418        C433   1.418       .  A
C418        C426   1.387       .  A
C419        C431   1.414       .  A
C419        C427   1.386       .  A
C420        C434   1.415       .  A
C420        C428   1.386       .  A
C421        C429   1.387       .  A
C421        C432   1.415       .  A
C422        C430   1.385       .  A
C422        C433   1.414       .  A
C423        C424   1.376   1_545  A
C423        H435   1.082       .  S
C424        H436   1.082       .  S
C425        C426   1.376   1_545  A
C425        H437   1.082       .  S
C426        H438   1.082       .  S
C427        C428   1.373       .  A
C427        H439   1.082       .  S
C428        H440   1.082       .  S
C429        C430   1.373       .  A
C429        H441   1.082       .  S
C430        H442   1.082       .  S
C431        C634   1.491       .  S
C432        C524   1.491       .  S
C433        C535   1.490       .  S
C434        C612   1.487       .  S
C445        H446   1.110       .  S
C445        C451   1.537       .  S
C445        C450   1.543       .  S
C445        C449   1.533   1_455  S
C447        H448   1.110       .  S
C447        C453   1.531   1_655  S
C447        C452   1.540       .  S
C447        C454   1.536       .  S
C449        C452   1.376       .  D
C449        C502   1.478       .  S
C450        C453   1.377       .  D
C450        C513   1.486       .  S
C451        C454   1.374   1_455  D
C451        C722   1.493       .  S
C452        C546   1.487       .  S
C453        C469   1.479       .  S
C454        C700   1.491       .  S
O455        C465   1.262       .  A
O456        C466   1.262       .  A
O456        V463   1.888   1_556  S
O457        C467   1.266       .  A
O458        C468   1.267   1_655  A
O458        V463   1.908   1_546  S
O459        C468   1.262       .  A
O459        V464   1.888   1_545  S
O460        C467   1.262   1_455  A
O461        C466   1.267   1_455  A
O461        V464   1.906       .  S
O462        C465   1.266   1_455  A
V463        V464   2.086   1_654  T
C465        C568   1.474       .  S
C466        C491   1.476       .  S
C467        C480   1.474       .  S
C468        C590   1.478       .  S
C469        C470   1.405   1_455  A
C469        C474   1.404       .  A
C470        C471   1.390       .  A
C470        H483   1.081       .  S
C471        C472   1.395   1_655  A
C471        H484   1.084       .  S
C472        C473   1.402       .  A
C472        C475   1.432       .  S
C473        C474   1.400       .  A
C473        H485   1.083       .  S
C474        H486   1.083       .  S
C475        C476   1.202       .  T
C476        C477   1.433       .  S
C477        C478   1.396       .  A
C477        C482   1.400   1_455  A
C478        C479   1.393       .  A
C478        H487   1.084       .  S
C479        C480   1.407   1_455  A
C479        H488   1.083       .  S
C480        C481   1.406       .  A
C481        C482   1.399       .  A
C481        H489   1.083       .  S
C482        H490   1.083       .  S
C491        C492   1.408       .  A
C491        C496   1.405   1_655  A
C492        C493   1.395       .  A
C492        H505   1.083       .  S
C493        C494   1.397       .  A
C493        H506   1.084       .  S
C494        C495   1.401   1_655  A
C494        C497   1.435       .  S
C495        C496   1.399       .  A
C495        H507   1.084       .  S
C496        H508   1.083       .  S
C497        C498   1.203       .  T
C498        C499   1.434       .  S
C499        C500   1.396   1_655  A
C499        C504   1.402       .  A
C500        C501   1.391       .  A
C500        H509   1.084       .  S
C501        C502   1.403   1_455  A
C501        H510   1.082       .  S
C502        C503   1.404       .  A
C503        C504   1.400       .  A
C503        H511   1.083       .  S
C504        H512   1.083       .  S
C513        C514   1.404       .  A
C513        C518   1.406       .  A
C514        C515   1.402       .  A
C514        H527   1.083       .  S
C515        C516   1.402       .  A
C515        H528   1.083       .  S
C516        C517   1.400       .  A
C516        C519   1.444       .  S
C517        C518   1.397       .  A
C517        H529   1.083       .  S
C518        H530   1.083       .  S
C519        C520   1.208       .  T
C520        C521   1.444       .  S
C521        C522   1.402       .  A
C521        C526   1.401       .  A
C522        C523   1.400       .  A
C522        H531   1.083       .  S
C523        C524   1.405       .  A
C523        H532   1.083       .  S
C524        C525   1.406       .  A
C525        C526   1.400       .  A
C525        H533   1.083       .  S
C526        H534   1.083       .  S
C535        C536   1.405       .  A
C535        C540   1.404       .  A
C536        C537   1.401       .  A
C536        H549   1.083       .  S
C537        C538   1.402       .  A
C537        H550   1.083       .  S
C538        C539   1.402       .  A
C538        C541   1.445       .  S
C539        C540   1.400       .  A
C539        H551   1.083       .  S
C540        H552   1.083       .  S
C541        C542   1.209       .  T
C542        C543   1.445       .  S
C543        C544   1.400       .  A
C543        C548   1.402       .  A
C544        C545   1.398       .  A
C544        H553   1.083       .  S
C545        C546   1.407       .  A
C545        H554   1.083       .  S
C546        C547   1.404       .  A
C547        C548   1.402       .  A
C547        H555   1.083       .  S
C548        H556   1.083       .  S
C557        C558   1.405   1_655  A
C557        C562   1.406       .  A
C558        C559   1.392       .  A
C558        H571   1.082       .  S
C559        C560   1.396   1_455  A
C559        H572   1.084       .  S
C560        C561   1.402       .  A
C560        C563   1.435       .  S
C561        C562   1.401       .  A
C561        H573   1.083       .  S
C562        H574   1.083       .  S
C563        C564   1.203       .  T
C564        C565   1.435       .  S
C565        C566   1.397       .  A
C565        C570   1.401   1_655  A
C566        C567   1.394       .  A
C566        H575   1.084       .  S
C567        C568   1.407       .  A
C567        H576   1.083       .  S
C568        C569   1.405   1_655  A
C569        C570   1.399       .  A
C569        H577   1.083       .  S
C570        H578   1.083       .  S
C579        C580   1.406   1_455  A
C579        C584   1.405       .  A
C580        C581   1.392       .  A
C580        H593   1.081       .  S
C581        C582   1.396   1_655  A
C581        H594   1.084       .  S
C582        C583   1.402       .  A
C582        C585   1.437       .  S
C583        C584   1.402       .  A
C583        H595   1.083       .  S
C584        H596   1.083       .  S
C585        C586   1.204       .  T
C586        C587   1.437       .  S
C587        C588   1.397       .  A
C587        C592   1.401   1_455  A
C588        C589   1.396       .  A
C588        H597   1.084       .  S
C589        C590   1.408       .  A
C589        H598   1.083       .  S
C590        C591   1.405   1_455  A
C591        C592   1.400       .  A
C591        H599   1.083       .  S
C592        H600   1.083       .  S
C601        C602   1.404       .  A
C601        C606   1.407       .  A
C602        C603   1.403       .  A
C602        H615   1.083       .  S
C603        C604   1.403       .  A
C603        H616   1.083       .  S
C604        C605   1.400       .  A
C604        C607   1.445       .  S
C605        C606   1.397       .  A
C605        H617   1.083       .  S
C606        H618   1.083       .  S
C607        C608   1.209       .  T
C608        C609   1.445       .  S
C609        C610   1.402       .  A
C609        C614   1.402       .  A
C610        C611   1.400       .  A
C610        H619   1.083       .  S
C611        C612   1.403       .  A
C611        H620   1.083       .  S
C612        C613   1.404       .  A
C613        C614   1.401       .  A
C613        H621   1.083       .  S
C614        H622   1.083       .  S
C623        C624   1.405       .  A
C623        C628   1.407       .  A
C624        C625   1.403       .  A
C624        H637   1.083       .  S
C625        C626   1.402       .  A
C625        H638   1.083       .  S
C626        C627   1.401       .  A
C626        C629   1.448       .  S
C627        C628   1.400       .  A
C627        H639   1.083       .  S
C628        H640   1.082       .  S
C629        C630   1.211       .  T
C630        C631   1.448       .  S
C631        C632   1.402       .  A
C631        C636   1.403       .  A
C632        C633   1.401       .  A
C632        H641   1.083       .  S
C633        C634   1.405       .  A
C633        H642   1.083       .  S
C634        C635   1.405       .  A
C635        C636   1.402       .  A
C635        H643   1.083       .  S
C636        H644   1.083       .  S
C645        C646   1.406       .  A
C645        C650   1.406   1_455  A
C646        C647   1.402       .  A
C646        H659   1.083       .  S
C647        C648   1.402       .  A
C647        H660   1.083       .  S
C648        C649   1.404   1_455  A
C648        C651   1.451       .  S
C649        C650   1.404       .  A
C649        H661   1.083       .  S
C650        H662   1.083       .  S
C651        C652   1.213       .  T
C652        C653   1.451       .  S
C653        C654   1.398   1_455  A
C653        C658   1.403       .  A
C654        C655   1.399       .  A
C654        H663   1.083       .  S
C655        C656   1.411   1_655  A
C655        H664   1.081       .  S
C656        C657   1.411       .  A
C657        C658   1.406       .  A
C657        H665   1.081       .  S
C658        H666   1.083       .  S
C667        C668   1.404   1_655  A
C667        C672   1.404       .  A
C668        C669   1.401       .  A
C668        H681   1.083       .  S
C669        C670   1.403   1_455  A
C669        H682   1.083       .  S
C670        C671   1.402       .  A
C670        C673   1.447       .  S
C671        C672   1.402       .  A
C671        H683   1.083       .  S
C672        H684   1.083       .  S
C673        C674   1.211       .  T
C674        C675   1.447       .  S
C675        C676   1.399   1_655  A
C675        C680   1.403       .  A
C676        C677   1.398       .  A
C676        H685   1.084       .  S
C677        C678   1.408   1_455  A
C677        H686   1.083       .  S
C678        C679   1.407       .  A
C679        C680   1.404       .  A
C679        H687   1.083       .  S
C680        H688   1.083       .  S
C689        C690   1.405   1_655  A
C689        C694   1.405       .  A
C690        C691   1.399       .  A
C690        H703   1.083       .  S
C691        C692   1.401   1_455  A
C691        H704   1.083       .  S
C692        C693   1.402       .  A
C692        C695   1.443       .  S
C693        C694   1.401       .  A
C693        H705   1.083       .  S
C694        H706   1.083       .  S
C695        C696   1.208       .  T
C696        C697   1.443       .  S
C697        C698   1.402       .  A
C697        C702   1.399   1_655  A
C698        C699   1.402       .  A
C698        H707   1.083       .  S
C699        C700   1.406       .  A
C699        H708   1.083       .  S
C700        C701   1.408   1_655  A
C701        C702   1.397       .  A
C701        H709   1.083       .  S
C702        H710   1.084       .  S
C711        C712   1.406   1_455  A
C711        C716   1.406       .  A
C712        C713   1.402       .  A
C712        H725   1.083       .  S
C713        C714   1.403   1_655  A
C713        H726   1.083       .  S
C714        C715   1.400       .  A
C714        C717   1.445       .  S
C715        C716   1.399       .  A
C715        H727   1.083       .  S
C716        H728   1.083       .  S
C717        C718   1.209       .  T
C718        C719   1.445       .  S
C719        C720   1.398   1_455  A
C719        C724   1.403       .  A
C720        C721   1.397       .  A
C720        H729   1.084       .  S
C721        C722   1.409   1_655  A
C721        H730   1.083       .  S
C722        C723   1.407       .  A
C723        C724   1.404       .  A
C723        H731   1.083       .  S
C724        H732   1.083       .  S
