geometry optimzed in LAMMPS
_audit_creation_date              2020-12-01 
_audit_creation_method            'lammps2cif' 
_symmetry_space_group_name_H-M    'P1' 
_symmetry_Int_Tables_number       1 
_symmetry_cell_setting            triclinic 
loop_ 
_symmetry_equiv_pos_as_xyz 
  x,y,z 
_cell_length_a                    35.34737112 
_cell_length_b                    35.35017871076695 
_cell_length_c                    26.441926517536846 
_cell_angle_alpha                 90.12570328219694 
_cell_angle_beta                  89.61992895186637 
_cell_angle_gamma                 120.22172911056498 
loop_ 
_atom_site_label 
_atom_site_type_symbol 
_atom_site_fract_x 
_atom_site_fract_y 
_atom_site_fract_z 
_atom_site_charge 
Zn1        Zn  0.42956667  0.25790703  0.95487834     1.49700
Zn2        Zn  0.37288056  0.18508396  0.03907099     1.49400
Zn3        Zn  0.42750687  0.16675682  0.95362932     1.49100
Zn4        Zn  0.47699189  0.23539175  0.04197165     1.49500
O5          O  0.42647182  0.21112529  0.99729003    -1.84300
O6          O  0.37908786  0.26707056  0.97072152    -0.74900
O7          O  0.33539423  0.12048244  0.02462536    -0.74700
O8          O  0.42545446  0.17974440  0.87970440    -0.74200
O9          O  0.33913443  0.21698826  0.02891563    -0.74900
O10         O  0.42753961  0.24353363  0.88067059    -0.74500
O11         O  0.37521668  0.10768617  0.96888113    -0.75100
O12         O  0.51514108  0.20975219  0.02756212    -0.74500
O13         O  0.38670058  0.18894590  0.11344459    -0.75200
O14         O  0.48283602  0.16373605  0.96384406    -0.74600
O15         O  0.45926339  0.22390994  0.11487984    -0.75100
O16         O  0.51504782  0.30024315  0.03206158    -0.75000
O17         O  0.48535069  0.31559137  0.96731608    -0.74800
C18         C  0.34650461  0.24937425  0.00094708     0.77000
C19         C  0.34147884  0.09438019  0.99706046     0.77500
C20         C  0.42639988  0.21175888  0.85654190     0.76500
C21         C  0.51409849  0.18254694  0.99527590     0.76800
C22         C  0.42246564  0.20503728  0.13767414     0.78000
C23         C  0.51555800  0.32727956  0.99997120     0.77000
Zn24       Zn  0.42878133  0.25770990  0.54061004     1.49700
Zn25       Zn  0.42894160  0.16812954  0.53913241     1.49400
Zn26       Zn  0.37208976  0.18491621  0.45615375     1.49100
Zn27       Zn  0.47650259  0.23724700  0.45157709     1.49500
O28         O  0.42613709  0.21182185  0.49680158    -1.84300
O29         O  0.42577155  0.24196990  0.61414543    -0.74900
O30         O  0.37809311  0.10948806  0.52363445    -0.74700
O31         O  0.33730883  0.21558065  0.46968009    -0.74200
O32         O  0.42524848  0.17897490  0.61342963    -0.74900
O33         O  0.37777679  0.26593556  0.52701042    -0.74500
O34         O  0.33515345  0.11968339  0.47095563    -0.75100
O35         O  0.45877639  0.22719681  0.37911512    -0.74500
O36         O  0.48449791  0.16602484  0.52753833    -0.75200
O37         O  0.38616020  0.19085959  0.38096030    -0.74600
O38         O  0.51535335  0.21230755  0.46355205    -0.75100
O39         O  0.51407665  0.30175262  0.46298470    -0.75000
O40         O  0.48425512  0.31593408  0.52909342    -0.74800
C41         C  0.42415053  0.20967352  0.63736371     0.77000
C42         C  0.34337192  0.09462088  0.49750886     0.77500
C43         C  0.34451328  0.24758906  0.49836052     0.76500
C44         C  0.42222082  0.20888696  0.35643667     0.76800
C45         C  0.51551175  0.18566163  0.49562134     0.78000
C46         C  0.51430248  0.32832865  0.49564986     0.77000
Zn47       Zn  0.26252000  0.83558796  0.05202591     1.49700
Zn48       Zn  0.17137282  0.74486057  0.05306843     1.49400
Zn49       Zn  0.18829695  0.81666502  0.96822777     1.49100
Zn50       Zn  0.24158063  0.76622720  0.96486849     1.49500
O51         O  0.21581879  0.79105484  0.00966826    -1.84300
O52         O  0.24859913  0.82181126  0.12623381    -0.74900
O53         O  0.11170763  0.73646738  0.03969449    -0.74700
O54         O  0.21729532  0.88182378  0.98123928    -0.74200
O55         O  0.18432986  0.76000910  0.12668250    -0.74900
O56         O  0.26804304  0.89412511  0.03872372    -0.74500
O57         O  0.12292571  0.78733056  0.98271795    -0.75100
O58         O  0.23000604  0.77120117  0.89186682    -0.74500
O59         O  0.16876314  0.68691430  0.04186726    -0.75200
O60         O  0.19473258  0.80832847  0.89338562    -0.74600
O61         O  0.21710407  0.70290991  0.97974608    -0.75100
O62         O  0.30659854  0.79501176  0.97380768    -0.75000
O63         O  0.32198418  0.84120820  0.03762816    -0.74800
C64         C  0.21643462  0.79093404  0.14998437     0.77000
C65         C  0.09741855  0.75566417  0.01157890     0.77500
C66         C  0.24849155  0.90768916  0.01008212     0.76500
C67         C  0.21123366  0.78884554  0.86911274     0.76800
C68         C  0.18932563  0.67580757  0.01112386     0.78000
C69         C  0.33403166  0.82330487  0.00422174     0.77000
Zn70       Zn  0.23941240  0.76401231  0.46407836     1.49700
Zn71       Zn  0.26079385  0.83375471  0.55192243     1.49400
Zn72       Zn  0.18766500  0.81591070  0.46810383     1.49100
Zn73       Zn  0.17103891  0.74299209  0.55301632     1.49500
O74         O  0.21457633  0.78936609  0.50936504    -1.84300
O75         O  0.30300102  0.78895418  0.47719415    -0.74900
O76         O  0.26893889  0.89284994  0.53560151    -0.74700
O77         O  0.19252374  0.80658309  0.39303573    -0.74200
O78         O  0.31866270  0.83549511  0.54091236    -0.74900
O79         O  0.23235334  0.77407568  0.39121503    -0.74500
O80         O  0.21749035  0.88144019  0.47975183    -0.75100
O81         O  0.11262196  0.73764051  0.54179955    -0.74500
O82         O  0.24515905  0.82231942  0.62637055    -0.75200
O83         O  0.12347206  0.78884711  0.48541107    -0.74600
O84         O  0.18492905  0.75687969  0.62695724    -0.75100
O85         O  0.16579619  0.68406005  0.53905651    -0.75000
O86         O  0.21172141  0.69928533  0.47457921    -0.74800
C87         C  0.32988522  0.81563621  0.50923863     0.77000
C88         C  0.24953067  0.90706944  0.50769044     0.77500
C89         C  0.21207519  0.79022127  0.36861610     0.76500
C90         C  0.09844188  0.75780452  0.51518829     0.76800
C91         C  0.21455358  0.79005891  0.65024991     0.78000
C92         C  0.18390153  0.67207812  0.50585532     0.77000
Zn93       Zn  0.81846896  0.63494125  0.04551070     1.49700
Zn94       Zn  0.76668810  0.53059303  0.04832252     1.49400
Zn95       Zn  0.74522657  0.57919759  0.96120414     1.49100
Zn96       Zn  0.83581750  0.58012309  0.96039425     1.49500
O97         O  0.79157677  0.58155334  0.00385645    -1.84300
O98         O  0.80965769  0.62003607  0.12036134    -0.74900
O99         O  0.70200947  0.49292484  0.03814952    -0.74700
O100        O  0.73978896  0.63239447  0.97340683    -0.74200
O101        O  0.77686916  0.54764272  0.12122325    -0.74900
O102        O  0.79081118  0.67211856  0.03031681    -0.74500
O103        O  0.68661230  0.52450638  0.97533212    -0.75100
O104        O  0.82280322  0.58153588  0.88711969    -0.74500
O105        O  0.79214897  0.49225561  0.03420896    -0.75200
O106        O  0.75875349  0.57893106  0.88686539    -0.74600
O107        O  0.83875573  0.52518273  0.97080011    -0.75100
O108        O  0.89527186  0.63146659  0.97418736    -0.75000
O109        O  0.88432508  0.67009026  0.03310351    -0.74800
C110        C  0.79310550  0.58393544  0.14450981     0.77000
C111        C  0.67484147  0.49367069  0.00745661     0.77500
C112        C  0.75983144  0.66637705  0.00097735     0.76500
C113        C  0.79081055  0.57986499  0.86345816     0.76800
C114        C  0.81976067  0.49369301  0.00209228     0.78000
C115        C  0.90972037  0.66421915  0.00376416     0.77000
Zn116      Zn  0.77141262  0.52888193  0.45859849     1.49700
Zn117      Zn  0.74813643  0.57505215  0.54655781     1.49400
Zn118      Zn  0.83799891  0.57546532  0.54812971     1.49100
Zn119      Zn  0.82248304  0.63334604  0.46490234     1.49500
O120        O  0.79531265  0.57851625  0.50445653    -1.84300
O121        O  0.70704427  0.48945606  0.47073446    -0.74900
O122        O  0.76275087  0.58053661  0.62047826    -0.74700
O123        O  0.84246255  0.52105290  0.53489492    -0.74200
O124        O  0.69138398  0.51857044  0.53624368    -0.74900
O125        O  0.79909584  0.49205770  0.46854379    -0.74500
O126        O  0.82376923  0.57719373  0.62184166    -0.75100
O127        O  0.88672240  0.67062978  0.48199863    -0.74500
O128        O  0.73668814  0.62285356  0.52790295    -0.75200
O129        O  0.89689919  0.62809348  0.53556018    -0.74600
O130        O  0.79086370  0.66739333  0.47620607    -0.75100
O131        O  0.81818223  0.62048538  0.38952953    -0.75000
O132        O  0.78097962  0.54804070  0.38626848    -0.74800
C133        C  0.67999608  0.48835805  0.50356647     0.77000
C134        C  0.79362865  0.58035090  0.64469966     0.77500
C135        C  0.82571729  0.49192380  0.50052886     0.76500
C136        C  0.91163424  0.66307694  0.50959887     0.76800
C137        C  0.75559978  0.65692979  0.50033007     0.78000
C138        C  0.80033826  0.58505960  0.36414995     0.77000
Zn139      Zn  0.53747142  0.77574240  0.95016466     1.49700
Zn140      Zn  0.64160067  0.82408241  0.95659909     1.49400
Zn141      Zn  0.58527558  0.84157579  0.04125635     1.49100
Zn142      Zn  0.58253582  0.75019477  0.03820531     1.49500
O143        O  0.58691347  0.79803554  0.99658103    -1.84300
O144        O  0.55716500  0.78729714  0.87702473    -0.74900
O145        O  0.67824982  0.88891916  0.97080179    -0.74700
O146        O  0.52993416  0.84512946  0.03124457    -0.74200
O147        O  0.62942120  0.81811462  0.88154129    -0.74900
O148        O  0.49923131  0.80155901  0.96532667    -0.74500
O149        O  0.63799155  0.90054038  0.02705084    -0.75100
O150        O  0.58118539  0.76177633  0.11277312    -0.74500
O151        O  0.67682287  0.79440377  0.97124016    -0.75200
O152        O  0.58676314  0.82713795  0.11508263    -0.74600
O153        O  0.63467396  0.74277896  0.02674266    -0.75100
O154        O  0.52786586  0.69310065  0.02193688    -0.75000
O155        O  0.49824627  0.71083044  0.95924060    -0.74800
C156        C  0.59455901  0.80329001  0.85567461     0.77000
C157        C  0.67203598  0.91448752  0.99920758     0.77500
C158        C  0.49894648  0.82698979  0.99933819     0.76500
C159        C  0.58421274  0.79408405  0.13757719     0.76800
C160        C  0.66933846  0.76240332  0.99992475     0.78000
C161        C  0.49777012  0.68257170  0.98938312     0.77000
Zn162      Zn  0.57678633  0.83127094  0.45450380     1.49700
Zn163      Zn  0.53457228  0.76560208  0.54667336     1.49400
Zn164      Zn  0.57663957  0.74226842  0.45417433     1.49100
Zn165      Zn  0.63886104  0.81765579  0.53328855     1.49500
O166        O  0.58220709  0.78949151  0.49739948    -1.84300
O167        O  0.52184452  0.83330924  0.46991205    -0.74900
O168        O  0.49768345  0.70030708  0.54060028    -0.74700
O169        O  0.57544835  0.75441910  0.37986575    -0.74200
O170        O  0.49362978  0.78849974  0.53559806    -0.74900
O171        O  0.57629155  0.81754841  0.38046047    -0.74500
O172        O  0.52265274  0.68487902  0.47102985    -0.75100
O173        O  0.67228661  0.78525950  0.51906527    -0.74500
O174        O  0.55687475  0.78112890  0.61731730    -0.75200
O175        O  0.62740809  0.73401169  0.46549447    -0.74600
O176        O  0.62935854  0.81673195  0.60972850    -0.75100
O177        O  0.67471842  0.88194957  0.51277103    -0.75000
O178        O  0.62822225  0.89068577  0.46456566    -0.74800
C179        C  0.49198191  0.81418641  0.50324046     0.77000
C180        C  0.49541339  0.67301102  0.50759207     0.77500
C181        C  0.57558311  0.78592470  0.35654789     0.76500
C182        C  0.66234515  0.75189739  0.49142695     0.76800
C183        C  0.59476574  0.80159633  0.63687770     0.78000
C184        C  0.66494443  0.90612102  0.48657865     0.77000
Zn185      Zn  0.83791105  0.26365677  0.03292614     1.49700
Zn186      Zn  0.82491019  0.19229785  0.94903721     1.49400
Zn187      Zn  0.74886037  0.17330464  0.03088944     1.49100
Zn188      Zn  0.77039701  0.24236625  0.94313112     1.49500
O189        O  0.79566614  0.21775790  0.98878381    -1.84300
O190        O  0.89753533  0.27152915  0.02253760    -0.74900
O191        O  0.79581230  0.12688313  0.96164493    -0.74700
O192        O  0.76061975  0.18551661  0.10529668    -0.74200
O193        O  0.88961669  0.22107947  0.96653356    -0.74900
O194        O  0.82274261  0.24914350  0.10639857    -0.74500
O195        O  0.74333437  0.11535149  0.01701645    -0.75100
O196        O  0.70528251  0.21471225  0.95348734    -0.74500
O197        O  0.82054555  0.20089682  0.87403928    -0.75200
O198        O  0.69051380  0.16853089  0.01722692    -0.74600
O199        O  0.78163928  0.23430900  0.87073011    -0.75100
O200        O  0.79568870  0.30673597  0.95558298    -0.75000
O201        O  0.84071314  0.32108432  0.02026697    -0.74800
C202        C  0.91335946  0.25236965  0.99652130     0.77000
C203        C  0.76332360  0.10130979  0.98949800     0.77500
C204        C  0.79108977  0.21726573  0.12946678     0.76500
C205        C  0.67830222  0.18674250  0.98486069     0.76800
C206        C  0.80235388  0.21805335  0.84884264     0.78000
C207        C  0.82231666  0.33318308  0.98806658     0.77000
Zn208      Zn  0.76970511  0.23762922  0.53593850     1.49700
Zn209      Zn  0.81998129  0.18418312  0.52922986     1.49400
Zn210      Zn  0.74749806  0.16977340  0.44624238     1.49100
Zn211      Zn  0.83891320  0.25944652  0.44687336     1.49500
O212        O  0.79429183  0.21269806  0.48943768    -1.84300
O213        O  0.77866524  0.22794331  0.60818659    -0.74900
O214        O  0.78897459  0.11891958  0.51482712    -0.74700
O215        O  0.69020680  0.16789703  0.45934878    -0.74200
O216        O  0.81454164  0.19155941  0.60460017    -0.74900
O217        O  0.70554904  0.21274641  0.52466408    -0.74500
O218        O  0.73794075  0.10973461  0.45950611    -0.75100
O219        O  0.82522979  0.24623797  0.37250888    -0.74500
O220        O  0.88486975  0.21189242  0.51436850    -0.75200
O221        O  0.76209589  0.18339524  0.37214499    -0.74600
O222        O  0.89757881  0.26481060  0.45958483    -0.75100
O223        O  0.84396640  0.31836954  0.46201948    -0.75000
O224        O  0.79750281  0.30228978  0.52619037    -0.74800
C225        C  0.79716667  0.20958463  0.63003635     0.77000
C226        C  0.75630361  0.09420365  0.48711725     0.77500
C227        C  0.67873955  0.18673326  0.49205426     0.76500
C228        C  0.79396321  0.21481099  0.34865422     0.76800
C229        C  0.91097962  0.24409498  0.48656109     0.78000
C230        C  0.82570334  0.32991074  0.49557855     0.77000
Zn231      Zn  0.17526109  0.42891922  0.04941818     1.49700
Zn232      Zn  0.26726539  0.43238663  0.04635816     1.49400
Zn233      Zn  0.19236464  0.37262809  0.96607121     1.49100
Zn234      Zn  0.24152207  0.47659465  0.95870542     1.49500
O235        O  0.21906588  0.42733431  0.00524283    -1.84300
O236        O  0.18937407  0.42769964  0.12280206    -0.74900
O237        O  0.27623738  0.38144834  0.03265201    -0.74700
O238        O  0.12691716  0.33709095  0.97876881    -0.74200
O239        O  0.25390702  0.43151233  0.12088048    -0.74900
O240        O  0.11572422  0.37767707  0.03459590    -0.74500
O241        O  0.22183313  0.33746246  0.98150902    -0.75100
O242        O  0.23245937  0.45734458  0.88639605    -0.74500
O243        O  0.32425860  0.48866912  0.03112217    -0.75200
O244        O  0.20000682  0.38495625  0.89081757    -0.74600
O245        O  0.30562505  0.51731262  0.96827882    -0.75100
O246        O  0.21371013  0.51290426  0.97114159    -0.75000
O247        O  0.17148242  0.48352570  0.03875507    -0.74800
C248        C  0.22199904  0.42972895  0.14557162     0.77000
C249        C  0.25589837  0.34638624  0.00687496     0.77500
C250        C  0.10124926  0.34439311  0.00574483     0.76500
C251        C  0.21650303  0.42018640  0.86507239     0.76800
C252        C  0.33404950  0.51900373  0.99884705     0.78000
C253        C  0.18788123  0.51300493  0.00474904     0.77000
Zn254      Zn  0.26156849  0.42646586  0.46290726     1.49700
Zn255      Zn  0.18741250  0.36835955  0.54527057     1.49400
Zn256      Zn  0.23898150  0.47333335  0.55182594     1.49100
Zn257      Zn  0.17227790  0.42677867  0.46245236     1.49500
O258        O  0.21488927  0.42338425  0.50591417    -1.84300
O259        O  0.26994241  0.37564252  0.47593501    -0.74900
O260        O  0.19296547  0.38115467  0.62085259    -0.74700
O261        O  0.30356793  0.51247787  0.53961098    -0.74200
O262        O  0.21779059  0.33321697  0.53084200    -0.74900
O263        O  0.31898293  0.48130634  0.47596147    -0.74500
O264        O  0.22983876  0.45379415  0.62416666    -0.75100
O265        O  0.16800005  0.48079139  0.47563297    -0.74500
O266        O  0.12242395  0.33192812  0.52895219    -0.75200
O267        O  0.21146326  0.51078476  0.54171165    -0.74600
O268        O  0.11334608  0.37433441  0.47404811    -0.75100
O269        O  0.18652222  0.42697358  0.38878937    -0.75000
O270        O  0.24816358  0.42507046  0.38887677    -0.74800
C271        C  0.25075200  0.34134307  0.50312893     0.77000
C272        C  0.21092181  0.41668391  0.64613476     0.77500
C273        C  0.33057154  0.51229098  0.50763646     0.76500
C274        C  0.18491398  0.51049731  0.50921582     0.76800
C275        C  0.09801178  0.33956750  0.50046185     0.78000
C276        C  0.21711227  0.42537043  0.36515498     0.77000
C277        C  0.21138774  0.41570331  0.70225607    -0.06200
C278        C  0.24799788  0.44926708  0.72703186    -0.17400
C279        C  0.25134149  0.45050521  0.77969494     0.10900
C280        C  0.21674378  0.41802205  0.80918070    -0.06200
C281        C  0.18047251  0.38391205  0.78459325    -0.17400
C282        C  0.17716866  0.38266926  0.73175244     0.11000
S283        S  0.30157128  0.49337105  0.80655415    -0.32400
S284        S  0.12714723  0.33995119  0.70485224    -0.32400
H285        H  0.12342728  0.36806869  0.67028375     0.29000
H286        H  0.30364421  0.46698956  0.84496831     0.29000
H287        H  0.27491976  0.47439669  0.70508362     0.19600
H288        H  0.15355268  0.35902895  0.80678469     0.19600
C289        C  0.22197326  0.42925996  0.20184547    -0.06200
C290        C  0.18148408  0.41100488  0.22730569    -0.17400
C291        C  0.17862072  0.40804869  0.28006700     0.10900
C292        C  0.21729809  0.42469613  0.30904647    -0.06200
C293        C  0.25776161  0.44264547  0.28370745    -0.17400
C294        C  0.26063242  0.44561827  0.23092746     0.11000
S295        S  0.12436176  0.38065628  0.30741878    -0.32400
S296        S  0.31488001  0.47308119  0.20383881    -0.32400
H297        H  0.30601629  0.49926339  0.17164592     0.29000
H298        H  0.13356062  0.35667179  0.34272505     0.29000
H299        H  0.15142878  0.39773006  0.20589283     0.19600
H300        H  0.28775761  0.45599275  0.30526794     0.19600
C301        C  0.95846601  0.25983738  0.48779755    -0.06200
C302        C  0.97823137  0.26327988  0.53479280    -0.17400
C303        C  0.02384175  0.28756796  0.54005556     0.10900
C304        C  0.05050169  0.30815980  0.49722461    -0.06200
C305        C  0.03073892  0.30160127  0.44970572    -0.17400
C306        C  0.98533473  0.27728719  0.44448924     0.11000
S307        S  0.04540120  0.29475663  0.60300265    -0.32400
S308        S  0.96382475  0.26945282  0.38148070    -0.32400
H309        H  0.92691674  0.22823700  0.39157465     0.29000
H310        H  0.07348327  0.34017846  0.59762987     0.29000
H311        H  0.95799608  0.24993096  0.56833598     0.19600
H312        H  0.05087358  0.31613783  0.41631131     0.19600
C313        C  0.96073757  0.26819016  0.00068425    -0.06200
C314        C  0.98514928  0.27350845  0.95646810    -0.17400
C315        C  0.03106599  0.29702705  0.95699566     0.10900
C316        C  0.05327833  0.31470523  0.00308152    -0.06200
C317        C  0.02868436  0.30671977  0.04771111    -0.17400
C318        C  0.98295537  0.28329014  0.04715747     0.11000
S319        S  0.05895876  0.30686897  0.89692696    -0.32400
S320        S  0.95491770  0.27369603  0.10717012    -0.32400
H321        H  0.91877622  0.23308968  0.09352700     0.29000
H322        H  0.08783127  0.35169531  0.90574574     0.29000
H323        H  0.96845712  0.26209953  0.92063918     0.19600
H324        H  0.04527243  0.31927757  0.08340155     0.19600
C325        C  0.80425764  0.21804304  0.79287287    -0.06200
C326        C  0.80373107  0.18252115  0.76835027    -0.17400
C327        C  0.80080228  0.17835606  0.71565517     0.10900
C328        C  0.79938973  0.21093680  0.68608472    -0.06200
C329        C  0.80088749  0.24691298  0.71069097    -0.17400
C330        C  0.80380945  0.25109697  0.76325252     0.11000
S331        S  0.79557219  0.12909055  0.68917541    -0.32400
S332        S  0.80883452  0.30045846  0.78959751    -0.32400
H333        H  0.83956607  0.30534991  0.82638298     0.29000
H334        H  0.76121486  0.12243629  0.65706313     0.29000
H335        H  0.80356239  0.15667885  0.79051927     0.19600
H336        H  0.80080305  0.27271512  0.68869434     0.19600
C337        C  0.79064511  0.21696631  0.18547887    -0.06200
C338        C  0.83083859  0.23456426  0.21058746    -0.17400
C339        C  0.83289646  0.23330240  0.26326870     0.10900
C340        C  0.79393591  0.21497458  0.29247451    -0.06200
C341        C  0.75364829  0.19738349  0.26731693    -0.17400
C342        C  0.75157859  0.19867985  0.21449131     0.11000
S343        S  0.88616184  0.25320505  0.29024376    -0.32400
S344        S  0.69833114  0.17878039  0.18691144    -0.32400
H345        H  0.71284495  0.21197338  0.15008243     0.29000
H346        H  0.87162325  0.21881058  0.32546901     0.29000
H347        H  0.86102054  0.24815683  0.18885564     0.19600
H348        H  0.72348710  0.18377470  0.28906396     0.19600
C349        C  0.37602441  0.54958302  0.50716218    -0.06200
C350        C  0.39499456  0.56951332  0.55339119    -0.17400
C351        C  0.43606419  0.60756152  0.55520568     0.10900
C352        C  0.45833532  0.62740290  0.50962256    -0.06200
C353        C  0.44105740  0.60553772  0.46374045    -0.17400
C354        C  0.40017093  0.56722744  0.46189548     0.11000
S355        S  0.45835517  0.62870933  0.61682624    -0.32400
S356        S  0.37922864  0.54523505  0.40011967    -0.32400
H357        H  0.33783487  0.54066363  0.40905459     0.29000
H358        H  0.50225344  0.64524950  0.60207852     0.29000
H359        H  0.37754355  0.55543685  0.58850219     0.19600
H360        H  0.45790457  0.62009562  0.42847355     0.19600
C361        C  0.69553580  0.95377124  0.48335662    -0.06200
C362        C  0.71618447  0.97638690  0.52767452    -0.17400
C363        C  0.73682219  0.02209037  0.53002908     0.10900
C364        C  0.73841877  0.04620302  0.48657299    -0.06200
C365        C  0.72011850  0.02350736  0.44140047    -0.17400
C366        C  0.69907690  0.97786532  0.43919590     0.11000
S367        S  0.75571515  0.04683698  0.59099600    -0.32400
S368        S  0.67727238  0.95241809  0.37887777    -0.32400
H369        H  0.68299761  0.91628046  0.38689554     0.29000
H370        H  0.73560957  0.07240458  0.58734524     0.29000
H371        H  0.71314961  0.95821034  0.56189905     0.19600
H372        H  0.72177150  0.04146637  0.40748707     0.19600
C373        C  0.45990110  0.63725579  0.98892270    -0.06200
C374        C  0.44590824  0.61462603  0.03510319    -0.17400
C375        C  0.40567739  0.57568090  0.03952420     0.10900
C376        C  0.37888022  0.55775238  0.99644497    -0.06200
C377        C  0.39425904  0.57903310  0.94961804    -0.17400
C378        C  0.43438382  0.61805998  0.94526132     0.11000
S379        S  0.38889954  0.55327950  0.10214147    -0.32400
S380        S  0.45116234  0.64120781  0.88279213    -0.32400
H381        H  0.49606697  0.65741631  0.89077825     0.29000
H382        H  0.34720790  0.54894481  0.09825177     0.29000
H383        H  0.46497368  0.62892135  0.06896787     0.19600
H384        H  0.37468669  0.56526994  0.91595680     0.19600
C385        C  0.74754563  0.05397007  0.99102925    -0.06200
C386        C  0.73473276  0.03312936  0.03822123    -0.17400
C387        C  0.71358388  0.98770498  0.04238663     0.10900
C388        C  0.70381458  0.96194178  0.99832093    -0.06200
C389        C  0.71992711  0.98276804  0.95145045    -0.17400
C390        C  0.74131343  0.02849713  0.94722315     0.11000
S391        S  0.69990217  0.96472241  0.10506257    -0.32400
S392        S  0.75589621  0.05172629  0.88461140    -0.32400
H393        H  0.74038472  0.08104069  0.89165229     0.29000
H394        H  0.70384410  0.92798175  0.09349222     0.29000
H395        H  0.74055675  0.05244775  0.07223282     0.19600
H396        H  0.71284478  0.96328612  0.91739161     0.19600
C397        C  0.59721693  0.80493938  0.79961612    -0.06200
C398        C  0.56838378  0.81398988  0.77313522    -0.17400
C399        C  0.56888272  0.81583913  0.72029323     0.10900
C400        C  0.59800995  0.80715037  0.69250176    -0.06200
C401        C  0.62799989  0.79969824  0.71881906    -0.17400
C402        C  0.62762219  0.79799041  0.77183851     0.11000
S403        S  0.53245875  0.83089564  0.69070491    -0.32400
S404        S  0.66451030  0.78356791  0.80129418    -0.32400
H405        H  0.63378649  0.75515686  0.83716737     0.29000
H406        H  0.56084049  0.85379931  0.65020609     0.29000
H407        H  0.54564132  0.82043276  0.79385402     0.19600
H408        H  0.65032195  0.79278066  0.69790702     0.19600
C409        C  0.58368014  0.79246551  0.19369460    -0.06200
C410        C  0.55702826  0.75206381  0.21784772    -0.17400
C411        C  0.55282290  0.74891594  0.27064593     0.10900
C412        C  0.57643780  0.78689061  0.30056373    -0.06200
C413        C  0.60328665  0.82715076  0.27646919    -0.17400
C414        C  0.60774545  0.83022260  0.22381705     0.11000
S415        S  0.51502067  0.69599822  0.29712150    -0.32400
S416        S  0.64687819  0.88276991  0.19799880    -0.32400
H417        H  0.66247085  0.86564208  0.16048443     0.29000
H418        H  0.49940286  0.71229060  0.33556782     0.29000
H419        H  0.53811519  0.72285033  0.19535557     0.19600
H420        H  0.62229211  0.85634657  0.29899036     0.19600
C421        C  0.83539191  0.45575955  0.49869630    -0.06200
C422        C  0.83606417  0.43578909  0.54420546    -0.17400
C423        C  0.83639741  0.39634175  0.54436494     0.10900
C424        C  0.83543043  0.37580480  0.49796407    -0.06200
C425        C  0.83855462  0.39768664  0.45256477    -0.17400
C426        C  0.83888837  0.43746895  0.45243187     0.11000
S427        S  0.83739392  0.37361103  0.60504103    -0.32400
S428        S  0.84325503  0.46290415  0.39193823    -0.32400
H429        H  0.86614905  0.50612768  0.41020908     0.29000
H430        H  0.86116174  0.35381517  0.58816723     0.29000
H431        H  0.83431906  0.44992309  0.57994916     0.19600
H432        H  0.83873562  0.38276949  0.41677271     0.19600
C433        C  0.73378677  0.68272954  0.49403008    -0.06200
C434        C  0.75639911  0.72793138  0.50354295    -0.17400
C435        C  0.73480845  0.75217795  0.50170337     0.10900
C436        C  0.68943105  0.73057763  0.49082656    -0.06200
C437        C  0.66764625  0.68552597  0.47994306    -0.17400
C438        C  0.68920192  0.66174193  0.48073819     0.11000
S439        S  0.76713112  0.81025567  0.51247037    -0.32400
S440        S  0.65778266  0.60453375  0.46378123    -0.32400
H441        H  0.69249996  0.60295205  0.43950172     0.29000
H442        H  0.74681490  0.82127246  0.47428229     0.29000
H443        H  0.79083567  0.74427837  0.51308246     0.19600
H444        H  0.63304466  0.66816134  0.47110356     0.19600
C445        C  0.82822969  0.45688021  0.99965170    -0.06200
C446        C  0.83145720  0.44125404  0.95190968    -0.17400
C447        C  0.83254273  0.40241150  0.94695992     0.10900
C448        C  0.82974676  0.37812703  0.99061671    -0.06200
C449        C  0.82958709  0.39534141  0.03842995    -0.17400
C450        C  0.82913773  0.43447790  0.04343893     0.11000
S451        S  0.83756962  0.38574323  0.88403199    -0.32400
S452        S  0.82956824  0.45387861  0.10669962    -0.32400
H453        H  0.85420401  0.49859344  0.09414132     0.29000
H454        H  0.86132426  0.36543611  0.89852356     0.29000
H455        H  0.83157199  0.45856877  0.91806753     0.19600
H456        H  0.82815468  0.37736086  0.07223602     0.19600
C457        C  0.70052088  0.74619838  0.00109975    -0.06200
C458        C  0.71377578  0.73646973  0.95513820    -0.17400
C459        C  0.73611638  0.71311770  0.95407542     0.10900
C460        C  0.74522841  0.69884449  0.99993713    -0.06200
C461        C  0.73518996  0.71174179  0.04592484    -0.17400
C462        C  0.71315510  0.73538301  0.04698887     0.11000
S463        S  0.75138830  0.70182771  0.89306771    -0.32400
S464        S  0.70135382  0.75008795  0.10802638    -0.32400
H465        H  0.70249176  0.78845036  0.09147792     0.29000
H466        H  0.78854382  0.70092648  0.91012643     0.29000
H467        H  0.70487581  0.74528526  0.91974803     0.19600
H468        H  0.74269492  0.70157405  0.08130066     0.19600
C469        C  0.79104014  0.57910561  0.80757343    -0.06200
C470        C  0.77569318  0.60306630  0.78114882    -0.17400
C471        C  0.77750220  0.60548308  0.72825758     0.10900
C472        C  0.79395899  0.58239836  0.70065410    -0.06200
C473        C  0.80945412  0.55864178  0.72722429    -0.17400
C474        C  0.80763521  0.55621318  0.77998297     0.11000
S475        S  0.76052430  0.64043948  0.69876376    -0.32400
S476        S  0.82456983  0.52115198  0.80938553    -0.32400
H477        H  0.79121735  0.50449727  0.84635661     0.29000
H478        H  0.79374832  0.65677909  0.66164401     0.29000
H479        H  0.76349453  0.62126109  0.80194456     0.19600
H480        H  0.82159523  0.54031019  0.70662770     0.19600
C481        C  0.79357984  0.58423507  0.20072469    -0.06200
C482        C  0.82624772  0.62137273  0.22573596    -0.17400
C483        C  0.83026228  0.62249214  0.27847994     0.10900
C484        C  0.80025143  0.58600081  0.30783916    -0.06200
C485        C  0.76757485  0.54896967  0.28267433    -0.17400
C486        C  0.76357601  0.54779707  0.23012444     0.11000
S487        S  0.87603034  0.67038396  0.30517761    -0.32400
S488        S  0.71781523  0.49951246  0.20380426    -0.32400
H489        H  0.70631654  0.52338245  0.17107498     0.29000
H490        H  0.88790289  0.64572783  0.33601245     0.29000
H491        H  0.84994970  0.64935194  0.20392442     0.19600
H492        H  0.74380187  0.52082728  0.30421331     0.19600
C493        C  0.45368129  0.82053000  0.50408286    -0.06200
C494        C  0.43513135  0.82110131  0.55107918    -0.17400
C495        C  0.39576007  0.82148230  0.55424818     0.10900
C496        C  0.37455726  0.82210161  0.50939307    -0.06200
C497        C  0.39430320  0.82384506  0.46253853    -0.17400
C498        C  0.43313837  0.82260046  0.45930128     0.11000
S499        S  0.37280733  0.81770480  0.61638747    -0.32400
S500        S  0.45239459  0.81992467  0.39681151    -0.32400
H501        H  0.45960794  0.78523194  0.40841284     0.29000
H502        H  0.33003148  0.78547516  0.60306613     0.29000
H503        H  0.45057073  0.81954123  0.58567688     0.19600
H504        H  0.37820693  0.82413328  0.42790577     0.19600
C505        C  0.17467749  0.62629393  0.50514798    -0.06200
C506        C  0.17007239  0.60496011  0.55146644    -0.17400
C507        C  0.17011351  0.56539179  0.55371969     0.10900
C508        C  0.17555442  0.54684256  0.50880020    -0.06200
C509        C  0.17637658  0.56619477  0.46222089    -0.17400
C510        C  0.17554935  0.60531531  0.45985837     0.11000
S511        S  0.16337099  0.54036909  0.61497748    -0.32400
S512        S  0.17606770  0.62687647  0.39791605    -0.32400
H513        H  0.15074608  0.64575640  0.41196875     0.29000
H514        H  0.14193087  0.49702939  0.59701075     0.29000
H515        H  0.16834126  0.62010547  0.58642061     0.19600
H516        H  0.17947176  0.55170390  0.42740029     0.19600
C517        C  0.05122282  0.74280938  0.51705261    -0.06200
C518        C  0.02993933  0.74095810  0.47172711    -0.17400
C519        C  0.98426427  0.71686696  0.46845074     0.10900
C520        C  0.95909683  0.69475166  0.51170416    -0.06200
C521        C  0.98040410  0.70013983  0.55801906    -0.17400
C522        C  0.02596283  0.72442995  0.56134020     0.11000
S523        S  0.96076560  0.71178232  0.40691539    -0.32400
S524        S  0.04980255  0.73063675  0.62310246    -0.32400
H525        H  0.08665612  0.77195826  0.61319080     0.29000
H526        H  0.93451866  0.66594867  0.40998211     0.29000
H527        H  0.04899587  0.75527133  0.43758542     0.19600
H528        H  0.96139853  0.68460757  0.59184829     0.19600
C529        C  0.38026524  0.83357754  0.00173853    -0.06200
C530        C  0.40307202  0.83904197  0.04699161    -0.17400
C531        C  0.44269108  0.83880460  0.04757242     0.10900
C532        C  0.46076515  0.83394816  0.00163715    -0.06200
C533        C  0.43951297  0.83200293  0.95615859    -0.17400
C534        C  0.40012370  0.83235681  0.95561386     0.11000
S535        S  0.46595454  0.84060220  0.10856615    -0.32400
S536        S  0.37701009  0.83131287  0.89463361    -0.32400
H537        H  0.35819179  0.85645963  0.90965156     0.29000
H538        H  0.47128549  0.80437135  0.09903845     0.29000
H539        H  0.38837724  0.84024527  0.08263814     0.19600
H540        H  0.45343820  0.82956077  0.92048816     0.19600
C541        C  0.17903115  0.54968010  0.00555343    -0.06200
C542        C  0.17583329  0.56665831  0.05248921    -0.17400
C543        C  0.17758399  0.60708761  0.05575894     0.10900
C544        C  0.18167178  0.63073451  0.01101137    -0.06200
C545        C  0.18157903  0.61211054  0.96407639    -0.17400
C546        C  0.17964047  0.57178708  0.96080556     0.11000
S547        S  0.17861658  0.62832197  0.11810888    -0.32400
S548        S  0.17791581  0.55041228  0.89830690    -0.32400
H549        H  0.15154756  0.50620408  0.91236662     0.29000
H550        H  0.21301020  0.67088279  0.10725853     0.29000
H551        H  0.17523183  0.54998613  0.08709259     0.19600
H552        H  0.18348773  0.62940367  0.92947065     0.19600
C553        C  0.95745314  0.69475495  0.00535805    -0.06200
C554        C  0.97833626  0.70422552  0.05242222    -0.17400
C555        C  0.02406947  0.72631099  0.05578458     0.10900
C556        C  0.04978739  0.73931706  0.01107896    -0.06200
C557        C  0.02890538  0.73238963  0.96419207    -0.17400
C558        C  0.98316891  0.71031623  0.96085496     0.11000
S559        S  0.04751163  0.73632654  0.11818286    -0.32400
S560        S  0.95960243  0.70233387  0.89868669    -0.32400
H561        H  0.92167851  0.70265278  0.91446932     0.29000
H562        H  0.08562517  0.77583996  0.10555678     0.29000
H563        H  0.95889121  0.69267543  0.08676345     0.19600
H564        H  0.04826328  0.74255929  0.92970976     0.19600
C565        C  0.20944988  0.78746253  0.81323257    -0.06200
C566        C  0.21725543  0.82521411  0.78710373    -0.17400
C567        C  0.21970563  0.82714266  0.73427940     0.10900
C568        C  0.21344761  0.79037623  0.70626170    -0.06200
C569        C  0.20424172  0.75210866  0.73235872    -0.17400
C570        C  0.20208882  0.75018175  0.78527171     0.11000
S571        S  0.22868013  0.87659680  0.70468206    -0.32400
S572        S  0.18818157  0.69869061  0.81453262    -0.32400
H573        H  0.16267165  0.70187772  0.85355409     0.29000
H574        H  0.27053252  0.88716218  0.68709169     0.29000
H575        H  0.22258249  0.85388057  0.80802418     0.19600
H576        H  0.19863260  0.72339634  0.71133230     0.19600
C577        C  0.21599650  0.79079076  0.20590649    -0.06200
C578        C  0.17633637  0.77824301  0.23128852    -0.17400
C579        C  0.17388163  0.77746762  0.28419828     0.10900
C580        C  0.21208617  0.79020786  0.31275578    -0.06200
C581        C  0.25161931  0.80239389  0.28739189    -0.17400
C582        C  0.25394531  0.80246286  0.23457152     0.11000
S583        S  0.12077383  0.75804714  0.31278031    -0.32400
S584        S  0.30580279  0.81573906  0.20636429    -0.32400
H585        H  0.28761852  0.78387258  0.16810698     0.29000
H586        H  0.12701863  0.73541592  0.35255401     0.29000
H587        H  0.14690833  0.76870996  0.20971392     0.19600
H588        H  0.28097336  0.81161312  0.30897962     0.19600
C589        C  0.55191564  0.37369593  0.49637852    -0.06200
C590        C  0.56805300  0.39407600  0.54326931    -0.17400
C591        C  0.60910160  0.43221302  0.54705559     0.10900
C592        C  0.63457927  0.45091379  0.50281583    -0.06200
C593        C  0.61677373  0.43232044  0.45574833    -0.17400
C594        C  0.57567632  0.39469849  0.45199511     0.11000
S595        S  0.62826601  0.45289573  0.60969106    -0.32400
S596        S  0.55523767  0.37582195  0.38930939    -0.32400
H597        H  0.51096615  0.35900801  0.40246510     0.29000
H598        H  0.67001554  0.45801189  0.60195920     0.29000
H599        H  0.55003615  0.37858682  0.57763965     0.19600
H600        H  0.63510753  0.44725039  0.42135342     0.19600
C601        C  0.55357381  0.17903269  0.49592993    -0.06200
C602        C  0.57230453  0.17802893  0.44929750    -0.17400
C603        C  0.61224399  0.17887026  0.44671322     0.10900
C604        C  0.63388317  0.17982280  0.49189337    -0.06200
C605        C  0.61388766  0.17827940  0.53853949    -0.17400
C606        C  0.57436602  0.17831978  0.54110849     0.11000
S607        S  0.63537693  0.18253028  0.38468462    -0.32400
S608        S  0.55440930  0.18123503  0.60307868    -0.32400
H609        H  0.54577610  0.21477136  0.59030448     0.29000
H610        H  0.67742988  0.21669183  0.39748464     0.29000
H611        H  0.55665988  0.17863072  0.41442863     0.19600
H612        H  0.63018359  0.17899380  0.57341041     0.19600
C613        C  0.26582188  0.95471482  0.50700093    -0.06200
C614        C  0.26767626  0.97539129  0.46091964    -0.17400
C615        C  0.29116373  0.02121972  0.45657597     0.10900
C616        C  0.31257697  0.04695341  0.49949738    -0.06200
C617        C  0.30755658  0.02617396  0.54615664    -0.17400
C618        C  0.28412313  0.98077182  0.55049479     0.11000
S619        S  0.29561774  0.04436732  0.39466098    -0.32400
S620        S  0.27865137  0.95837870  0.61290095    -0.32400
H621        H  0.23639521  0.92256240  0.60469978     0.29000
H622        H  0.34082108  0.07428932  0.39786804     0.29000
H623        H  0.25339810  0.95581329  0.42732404     0.19600
H624        H  0.32262962  0.04558289  0.57969050     0.19600
C625        C  0.31481067  0.26549504  0.49787893    -0.06200
C626        C  0.29916244  0.27171898  0.54426493    -0.17400
C627        C  0.27646632  0.29466847  0.54711249     0.10900
C628        C  0.26857473  0.31141031  0.50241851    -0.06200
C629        C  0.28257057  0.30339974  0.45578541    -0.17400
C630        C  0.30586328  0.28108859  0.45305344     0.11000
S631        S  0.26182726  0.30451400  0.60917600    -0.32400
S632        S  0.32614497  0.27669776  0.39181372    -0.32400
H633        H  0.36737475  0.28542549  0.40889370     0.29000
H634        H  0.27585815  0.34889547  0.60029282     0.29000
H635        H  0.30636174  0.26022806  0.57886818     0.19600
H636        H  0.27696062  0.31633497  0.42129273     0.19600
C637        C  0.42605897  0.21177637  0.80041984    -0.06200
C638        C  0.40254653  0.17165692  0.77483991    -0.17400
C639        C  0.40006358  0.16981848  0.72192536     0.10900
C640        C  0.42243087  0.20893818  0.69336299    -0.06200
C641        C  0.44558710  0.24896325  0.71896189    -0.17400
C642        C  0.44818855  0.25078693  0.77167381     0.11000
S643        S  0.36611391  0.11683371  0.69359167    -0.32400
S644        S  0.48294680  0.30371846  0.79932783    -0.32400
H645        H  0.50207837  0.28811409  0.83381889     0.29000
H646        H  0.34932705  0.13211921  0.65571256     0.29000
H647        H  0.38497007  0.14149991  0.79627746     0.19600
H648        H  0.46341108  0.27914821  0.69761220     0.19600
C649        C  0.42187059  0.20374132  0.19357334    -0.06200
C650        C  0.45488481  0.24010997  0.21898641    -0.17400
C651        C  0.45503200  0.24311883  0.27155594     0.10900
C652        C  0.42191493  0.20844327  0.30041730    -0.06200
C653        C  0.38894647  0.17172452  0.27507183    -0.17400
C654        C  0.38890467  0.16870000  0.22216823     0.11000
S655        S  0.49717103  0.29340525  0.29878707    -0.32400
S656        S  0.34754804  0.11836467  0.19389500    -0.32400
H657        H  0.37516575  0.11754472  0.15586046     0.29000
H658        H  0.46905755  0.29656488  0.33429734     0.29000
H659        H  0.48009854  0.26739730  0.19755954     0.19600
H660        H  0.36385544  0.14450811  0.29668105     0.19600
C661        C  0.55271077  0.37291418  0.00091783    -0.06200
C662        C  0.57023219  0.39182882  0.04800376    -0.17400
C663        C  0.60793231  0.43307034  0.05150715     0.10900
C664        C  0.62954248  0.45602428  0.00694850    -0.06200
C665        C  0.61038653  0.43857121  0.95999824    -0.17400
C666        C  0.57278927  0.39717010  0.95644276     0.11000
S667        S  0.62654285  0.45459529  0.11396112    -0.32400
S668        S  0.55531231  0.37546830  0.89393174    -0.32400
H669        H  0.55014929  0.33429608  0.90557145     0.29000
H670        H  0.64531407  0.49882432  0.09981276     0.29000
H671        H  0.55464200  0.37411552  0.08248414     0.19600
H672        H  0.62678786  0.45566013  0.92551424     0.19600
C673        C  0.55138413  0.17470898  0.99290658    -0.06200
C674        C  0.57000041  0.17581886  0.94550170    -0.17400
C675        C  0.61004171  0.17686536  0.94141833     0.10900
C676        C  0.63245384  0.17727745  0.98574720    -0.06200
C677        C  0.61216491  0.17285374  0.03294662    -0.17400
C678        C  0.57195061  0.17136975  0.03698442     0.11000
S679        S  0.63083001  0.17798176  0.87864356    -0.32400
S680        S  0.54894316  0.16579050  0.09950035    -0.32400
H681        H  0.50498677  0.14263391  0.08396739     0.29000
H682        H  0.65103422  0.15369300  0.89124502     0.29000
H683        H  0.55419422  0.17775493  0.91141335     0.19600
H684        H  0.62858645  0.17238772  0.06721815     0.19600
C685        C  0.26429586  0.95507475  0.00835847    -0.06200
C686        C  0.27131143  0.97521956  0.96081810    -0.17400
C687        C  0.29399064  0.02084474  0.95610687     0.10900
C688        C  0.31002073  0.04705652  0.99984600    -0.06200
C689        C  0.30008961  0.02698483  0.04758599    -0.17400
C690        C  0.27736889  0.98136772  0.05233618     0.11000
S691        S  0.30232272  0.04363921  0.89330361    -0.32400
S692        S  0.26682403  0.95881822  0.11541219    -0.32400
H693        H  0.22752557  0.92042777  0.10334849     0.29000
H694        H  0.30380839  0.08262814  0.90801583     0.29000
H695        H  0.26097346  0.95535272  0.92688748     0.19600
H696        H  0.31189844  0.04694769  0.08136666     0.19600
C697        C  0.27366750  0.31645003  0.00539911    -0.06200
C698        C  0.28880754  0.30797198  0.05055121    -0.17400
C699        C  0.31103817  0.28451637  0.05056394     0.10900
C700        C  0.31797091  0.26857654  0.00444401    -0.06200
C701        C  0.30131524  0.27550405  0.95961235    -0.17400
C702        C  0.27950434  0.29934808  0.95949064     0.11000
S703        S  0.33235297  0.27880611  0.11007512    -0.32400
S704        S  0.26315290  0.30966419  0.89900102    -0.32400
H705        H  0.27807585  0.35416283  0.90844628     0.29000
H706        H  0.37260123  0.28626311  0.09037539     0.29000
H707        H  0.28467014  0.32109682  0.08589362     0.19600
H708        H  0.30690736  0.26372732  0.92406351     0.19600
loop_ 
_geom_bond_atom_site_label_1 
_geom_bond_atom_site_label_2 
_geom_bond_distance 
_geom_bond_site_symmetry_2 
_ccdc_geom_bond_type 
Zn1           O5   1.957       .  S
Zn1           O6   2.009       .  S
Zn1          O10   2.019       .  S
Zn1          O17   2.028       .  S
Zn2           O5   1.969   1_554  S
Zn2           O7   2.018       .  S
Zn2           O9   2.031       .  S
Zn2          O13   2.017       .  S
Zn3           O5   1.960       .  S
Zn3           O8   2.019       .  S
Zn3          O11   2.012       .  S
Zn3          O14   2.031       .  S
Zn4           O5   1.950   1_554  S
Zn4          O12   2.002       .  S
Zn4          O15   2.001       .  S
Zn4          O16   2.007       .  S
O6           C18   1.273   1_556  A
O7           C19   1.274   1_554  A
O8           C20   1.273       .  A
O9           C18   1.275       .  A
O10          C20   1.274       .  A
O11          C19   1.274       .  A
O12          C21   1.271   1_554  A
O13          C22   1.272       .  A
O14          C21   1.274       .  A
O15          C22   1.272       .  A
O16          C23   1.273   1_554  A
O17          C23   1.274       .  A
C18         C700   1.475       .  S
C19         C688   1.472       .  S
C20         C637   1.484       .  S
C21         C673   1.478       .  S
C22         C649   1.479       .  S
C23         C661   1.482   1_556  S
Zn24         O28   1.955       .  S
Zn24         O29   2.011       .  S
Zn24         O33   2.000       .  S
Zn24         O40   2.026       .  S
Zn25         O28   1.952       .  S
Zn25         O30   1.988       .  S
Zn25         O32   2.017       .  S
Zn25         O36   2.024       .  S
Zn26         O28   1.976       .  S
Zn26         O31   2.037       .  S
Zn26         O34   2.035       .  S
Zn26         O37   2.032       .  S
Zn27         O28   1.942       .  S
Zn27         O35   1.995       .  S
Zn27         O38   1.997       .  S
Zn27         O39   2.002       .  S
O29          C41   1.273       .  A
O30          C42   1.273       .  A
O31          C43   1.276       .  A
O32          C41   1.272       .  A
O33          C43   1.272       .  A
O34          C42   1.275       .  A
O35          C44   1.271       .  A
O36          C45   1.273       .  A
O37          C44   1.275       .  A
O38          C45   1.271       .  A
O39          C46   1.272       .  A
O40          C46   1.274       .  A
C41         C640   1.481       .  S
C42         C616   1.477       .  S
C43         C625   1.474       .  S
C44         C652   1.481       .  S
C45         C601   1.477       .  S
C46         C589   1.481       .  S
Zn47         O51   1.964       .  S
Zn47         O52   2.020       .  S
Zn47         O56   2.010       .  S
Zn47         O63   2.042       .  S
Zn48         O51   1.963       .  S
Zn48         O53   2.010       .  S
Zn48         O55   2.011       .  S
Zn48         O59   2.025       .  S
Zn49         O51   1.968   1_556  S
Zn49         O54   2.025       .  S
Zn49         O57   2.035       .  S
Zn49         O60   2.028       .  S
Zn50         O51   1.946   1_556  S
Zn50         O58   2.002       .  S
Zn50         O61   1.991       .  S
Zn50         O62   2.006       .  S
O52          C64   1.274       .  A
O53          C65   1.273       .  A
O54          C66   1.275   1_556  A
O55          C64   1.273       .  A
O56          C66   1.274       .  A
O57          C65   1.276   1_556  A
O58          C67   1.271       .  A
O59          C68   1.273       .  A
O60          C67   1.274       .  A
O61          C68   1.271   1_556  A
O62          C69   1.272   1_556  A
O63          C69   1.275       .  A
C64         C577   1.479       .  S
C65         C556   1.480       .  S
C66         C685   1.476       .  S
C67         C565   1.479       .  S
C68         C544   1.476       .  S
C69         C529   1.486       .  S
Zn70         O74   1.945       .  S
Zn70         O75   1.991       .  S
Zn70         O79   2.000       .  S
Zn70         O86   2.004       .  S
Zn71         O74   1.958       .  S
Zn71         O76   2.007       .  S
Zn71         O78   2.034       .  S
Zn71         O82   2.027       .  S
Zn72         O74   1.973       .  S
Zn72         O77   2.032       .  S
Zn72         O80   2.029       .  S
Zn72         O83   2.019       .  S
Zn73         O74   1.958       .  S
Zn73         O81   2.001       .  S
Zn73         O84   2.018       .  S
Zn73         O85   2.030       .  S
O75          C87   1.271       .  A
O76          C88   1.274       .  A
O77          C89   1.274       .  A
O78          C87   1.275       .  A
O79          C89   1.271       .  A
O80          C88   1.275       .  A
O81          C90   1.273       .  A
O82          C91   1.273       .  A
O83          C90   1.274       .  A
O84          C91   1.273       .  A
O85          C92   1.274       .  A
O86          C92   1.271       .  A
C87         C496   1.477       .  S
C88         C613   1.481       .  S
C89         C580   1.477       .  S
C90         C517   1.476       .  S
C91         C568   1.481       .  S
C92         C505   1.482       .  S
Zn93         O97   1.969       .  S
Zn93         O98   2.031       .  S
Zn93        O102   2.036       .  S
Zn93        O109   2.037       .  S
Zn94         O97   1.950       .  S
Zn94         O99   2.004       .  S
Zn94        O101   1.999       .  S
Zn94        O105   2.002       .  S
Zn95         O97   1.962   1_556  S
Zn95        O100   2.009       .  S
Zn95        O103   2.032       .  S
Zn95        O106   2.021       .  S
Zn96         O97   1.956   1_556  S
Zn96        O104   2.001       .  S
Zn96        O107   2.016       .  S
Zn96        O108   2.003       .  S
O98         C110   1.275       .  A
O99         C111   1.272       .  A
O100        C112   1.274   1_556  A
O101        C110   1.271       .  A
O102        C112   1.276       .  A
O103        C111   1.275   1_556  A
O104        C113   1.271       .  A
O105        C114   1.271       .  A
O106        C113   1.273       .  A
O107        C114   1.272   1_556  A
O108        C115   1.272   1_556  A
O109        C115   1.276       .  A
C110        C481   1.487       .  S
C111        C664   1.480       .  S
C112        C460   1.477   1_554  S
C113        C469   1.478       .  S
C114        C445   1.476   1_554  S
C115        C553   1.477       .  S
Zn116       O120   1.943       .  S
Zn116       O121   2.006       .  S
Zn116       O125   2.002       .  S
Zn116       O132   1.999       .  S
Zn117       O120   1.951       .  S
Zn117       O122   2.009       .  S
Zn117       O124   2.014       .  S
Zn117       O128   1.989       .  S
Zn118       O120   1.952       .  S
Zn118       O123   2.037       .  S
Zn118       O126   2.018       .  S
Zn118       O129   2.000       .  S
Zn119       O120   1.973       .  S
Zn119       O127   2.024       .  S
Zn119       O130   2.034       .  S
Zn119       O131   2.033       .  S
O121        C133   1.273       .  A
O122        C134   1.272       .  A
O123        C135   1.275       .  A
O124        C133   1.272       .  A
O125        C135   1.271       .  A
O126        C134   1.274       .  A
O127        C136   1.275       .  A
O128        C137   1.271       .  A
O129        C136   1.274       .  A
O130        C137   1.274       .  A
O131        C138   1.274       .  A
O132        C138   1.273       .  A
C133        C592   1.480       .  S
C134        C472   1.481       .  S
C135        C421   1.481       .  S
C136        C520   1.477       .  S
C137        C433   1.471       .  S
C138        C484   1.489       .  S
Zn139       O143   1.954       .  S
Zn139       O144   2.023       .  S
Zn139       O148   2.013       .  S
Zn139       O155   2.010       .  S
Zn140       O143   1.972       .  S
Zn140       O145   2.021       .  S
Zn140       O147   2.022       .  S
Zn140       O151   2.031       .  S
Zn141       O143   1.962   1_554  S
Zn141       O146   2.041       .  S
Zn141       O149   2.011       .  S
Zn141       O152   2.027       .  S
Zn142       O143   1.959   1_554  S
Zn142       O150   2.018       .  S
Zn142       O153   2.009       .  S
Zn142       O154   2.018       .  S
O144        C156   1.275       .  A
O145        C157   1.274       .  A
O146        C158   1.275   1_554  A
O147        C156   1.273       .  A
O148        C158   1.274       .  A
O149        C157   1.275   1_554  A
O150        C159   1.273       .  A
O151        C160   1.275       .  A
O152        C159   1.274       .  A
O153        C160   1.273   1_554  A
O154        C161   1.274   1_554  A
O155        C161   1.273       .  A
C156        C397   1.484       .  S
C157        C388   1.476       .  S
C158        C532   1.490   1_556  S
C159        C409   1.485       .  S
C160        C457   1.477   1_556  S
C161        C373   1.483       .  S
Zn162       O166   1.949       .  S
Zn162       O167   2.018       .  S
Zn162       O171   2.014       .  S
Zn162       O178   1.987       .  S
Zn163       O166   1.947       .  S
Zn163       O168   2.006       .  S
Zn163       O170   2.005       .  S
Zn163       O174   1.998       .  S
Zn164       O166   1.948       .  S
Zn164       O169   2.017       .  S
Zn164       O172   2.013       .  S
Zn164       O175   1.982       .  S
Zn165       O166   1.979       .  S
Zn165       O173   2.050       .  S
Zn165       O176   2.044       .  S
Zn165       O177   2.040       .  S
O167        C179   1.273       .  A
O168        C180   1.272       .  A
O169        C181   1.272       .  A
O170        C179   1.272       .  A
O171        C181   1.272       .  A
O172        C180   1.273       .  A
O173        C182   1.277       .  A
O174        C183   1.272       .  A
O175        C182   1.272       .  A
O176        C183   1.276       .  A
O177        C184   1.278       .  A
O178        C184   1.272       .  A
C179        C493   1.479       .  S
C180        C352   1.481       .  S
C181        C412   1.481       .  S
C182        C436   1.487       .  S
C183        C400   1.481       .  S
C184        C361   1.476       .  S
Zn185       O189   1.949   1_554  S
Zn185       O190   1.999       .  S
Zn185       O194   2.010       .  S
Zn185       O201   2.011       .  S
Zn186       O189   1.975       .  S
Zn186       O191   2.030       .  S
Zn186       O193   2.037       .  S
Zn186       O197   2.026       .  S
Zn187       O189   1.952   1_554  S
Zn187       O192   2.014       .  S
Zn187       O195   1.991       .  S
Zn187       O198   2.018       .  S
Zn188       O189   1.953       .  S
Zn188       O196   2.014       .  S
Zn188       O199   2.001       .  S
Zn188       O200   2.010       .  S
O190        C202   1.272   1_554  A
O191        C203   1.275       .  A
O192        C204   1.272       .  A
O193        C202   1.276       .  A
O194        C204   1.272       .  A
O195        C203   1.273   1_554  A
O196        C205   1.272       .  A
O197        C206   1.275       .  A
O198        C205   1.273   1_554  A
O199        C206   1.272       .  A
O200        C207   1.272       .  A
O201        C207   1.273   1_554  A
C202        C313   1.479   1_556  S
C203        C385   1.474       .  S
C204        C337   1.481       .  S
C205        C676   1.481       .  S
C206        C325   1.481       .  S
C207        C448   1.476       .  S
Zn208       O212   1.948       .  S
Zn208       O213   1.997       .  S
Zn208       O217   2.001       .  S
Zn208       O224   1.999       .  S
Zn209       O212   1.971       .  S
Zn209       O214   2.031       .  S
Zn209       O216   2.030       .  S
Zn209       O220   2.026       .  S
Zn210       O212   1.958       .  S
Zn210       O215   2.020       .  S
Zn210       O218   2.005       .  S
Zn210       O221   2.019       .  S
Zn211       O212   1.961       .  S
Zn211       O219   2.025       .  S
Zn211       O222   2.015       .  S
Zn211       O223   2.038       .  S
O213        C225   1.271       .  A
O214        C226   1.275       .  A
O215        C227   1.273       .  A
O216        C225   1.274       .  A
O217        C227   1.272       .  A
O218        C226   1.274       .  A
O219        C228   1.274       .  A
O220        C229   1.275       .  A
O221        C228   1.274       .  A
O222        C229   1.275       .  A
O223        C230   1.275       .  A
O224        C230   1.271       .  A
C225        C328   1.484       .  S
C226        C364   1.483       .  S
C227        C604   1.478       .  S
C228        C340   1.486       .  S
C229        C301   1.479       .  S
C230        C424   1.481       .  S
Zn231       O235   1.957       .  S
Zn231       O236   2.013       .  S
Zn231       O240   2.008       .  S
Zn231       O247   2.021       .  S
Zn232       O235   1.958       .  S
Zn232       O237   2.011       .  S
Zn232       O239   2.020       .  S
Zn232       O243   2.034       .  S
Zn233       O235   1.967   1_556  S
Zn233       O238   2.027       .  S
Zn233       O241   2.027       .  S
Zn233       O244   2.025       .  S
Zn234       O235   1.945   1_556  S
Zn234       O242   2.001       .  S
Zn234       O245   1.998       .  S
Zn234       O246   1.997       .  S
O236        C248   1.274       .  A
O237        C249   1.274       .  A
O238        C250   1.275   1_556  A
O239        C248   1.273       .  A
O240        C250   1.274       .  A
O241        C249   1.275   1_556  A
O242        C251   1.271       .  A
O243        C252   1.275   1_554  A
O244        C251   1.274       .  A
O245        C252   1.271       .  A
O246        C253   1.271   1_556  A
O247        C253   1.273       .  A
C248        C289   1.488       .  S
C249        C697   1.478       .  S
C250        C316   1.480       .  S
C251        C280   1.480       .  S
C252        C376   1.485       .  S
C253        C541   1.479       .  S
Zn254       O258   1.955       .  S
Zn254       O259   1.993       .  S
Zn254       O263   2.010       .  S
Zn254       O270   2.012       .  S
Zn255       O258   1.976       .  S
Zn255       O260   2.037       .  S
Zn255       O262   2.044       .  S
Zn255       O266   2.038       .  S
Zn256       O258   1.951       .  S
Zn256       O261   2.011       .  S
Zn256       O264   2.003       .  S
Zn256       O267   2.018       .  S
Zn257       O258   1.952       .  S
Zn257       O265   2.019       .  S
Zn257       O268   1.994       .  S
Zn257       O269   2.008       .  S
O259        C271   1.271       .  A
O260        C272   1.275       .  A
O261        C273   1.273       .  A
O262        C271   1.277       .  A
O263        C273   1.272       .  A
O264        C272   1.273       .  A
O265        C274   1.273       .  A
O266        C275   1.276       .  A
O267        C274   1.273       .  A
O268        C275   1.273       .  A
O269        C276   1.271       .  A
O270        C276   1.272       .  A
C271        C628   1.479       .  S
C272        C277   1.485       .  S
C273        C349   1.479       .  S
C274        C508   1.479       .  S
C275        C304   1.478       .  S
C276        C292   1.484       .  S
C277        C278   1.405       .  A
C277        C282   1.416       .  A
C278        C279   1.397       .  A
C278        H287   1.084       .  S
C279        C280   1.414       .  A
C279        S283   1.805       .  S
C280        C281   1.404       .  A
C281        C282   1.402       .  A
C281        H288   1.084       .  S
C282        S284   1.799       .  S
S283        H286   1.407       .  S
S284        H285   1.406       .  S
C289        C290   1.406       .  A
C289        C294   1.418       .  A
C290        C291   1.398       .  A
C290        H299   1.084       .  S
C291        C292   1.416       .  A
C291        S295   1.804       .  S
C292        C293   1.405       .  A
C293        C294   1.399       .  A
C293        H300   1.084       .  S
C294        S296   1.801       .  S
S295        H298   1.408       .  S
S296        H297   1.407       .  S
C301        C302   1.404       .  A
C301        C306   1.412       .  A
C302        C303   1.402   1_655  A
C302        H311   1.084       .  S
C303        C304   1.414       .  A
C303        S307   1.799       .  S
C304        C305   1.403       .  A
C305        C306   1.395   1_455  A
C305        H312   1.084       .  S
C306        S308   1.798       .  S
S307        H310   1.407       .  S
S308        H309   1.407       .  S
C313        C314   1.404   1_554  A
C313        C318   1.414       .  A
C314        C315   1.403   1_655  A
C314        H323   1.084       .  S
C315        C316   1.417   1_556  A
C315        S319   1.803       .  S
C316        C317   1.403       .  A
C317        C318   1.397   1_455  A
C317        H324   1.084       .  S
C318        S320   1.805       .  S
S319        H322   1.407       .  S
S320        H321   1.407       .  S
C325        C326   1.404       .  A
C325        C330   1.415       .  A
C326        C327   1.400       .  A
C326        H335   1.084       .  S
C327        C328   1.415       .  A
C327        S331   1.797       .  S
C328        C329   1.404       .  A
C329        C330   1.396       .  A
C329        H336   1.084       .  S
C330        S332   1.802       .  S
S331        H334   1.406       .  S
S332        H333   1.407       .  S
C337        C338   1.403       .  A
C337        C342   1.415       .  A
C338        C339   1.397       .  A
C338        H347   1.085       .  S
C339        C340   1.415       .  A
C339        S343   1.797       .  S
C340        C341   1.406       .  A
C341        C342   1.401       .  A
C341        H348   1.084       .  S
C342        S344   1.803       .  S
S343        H346   1.407       .  S
S344        H345   1.407       .  S
C349        C350   1.404       .  A
C349        C354   1.416       .  A
C350        C351   1.398       .  A
C350        H359   1.084       .  S
C351        C352   1.414       .  A
C351        S355   1.804       .  S
C352        C353   1.405       .  A
C353        C354   1.398       .  A
C353        H360   1.084       .  S
C354        S356   1.803       .  S
S355        H358   1.408       .  S
S356        H357   1.407       .  S
C361        C362   1.402       .  A
C361        C366   1.414       .  A
C362        C363   1.400   1_565  A
C362        H371   1.084       .  S
C363        C364   1.416       .  A
C363        S367   1.797       .  S
C364        C365   1.404       .  A
C365        C366   1.397   1_545  A
C365        H372   1.084       .  S
C366        S368   1.805       .  S
S367        H370   1.407       .  S
S368        H369   1.407       .  S
C373        C374   1.405   1_556  A
C373        C378   1.415       .  A
C374        C375   1.400       .  A
C374        H383   1.084       .  S
C375        C376   1.415   1_554  A
C375        S379   1.800       .  S
C376        C377   1.406       .  A
C377        C378   1.399       .  A
C377        H384   1.084       .  S
C378        S380   1.804       .  S
S379        H382   1.407       .  S
S380        H381   1.407       .  S
C385        C386   1.402   1_556  A
C385        C390   1.414       .  A
C386        C387   1.393   1_545  A
C386        H395   1.084       .  S
C387        C388   1.411   1_554  A
C387        S391   1.800       .  S
C388        C389   1.405       .  A
C389        C390   1.402   1_565  A
C389        H396   1.084       .  S
C390        S392   1.803       .  S
S391        H394   1.407       .  S
S392        H393   1.407       .  S
C397        C398   1.404       .  A
C397        C402   1.418       .  A
C398        C399   1.398       .  A
C398        H407   1.085       .  S
C399        C400   1.415       .  A
C399        S403   1.805       .  S
C400        C401   1.403       .  A
C401        C402   1.403       .  A
C401        H408   1.084       .  S
C402        S404   1.803       .  S
S403        H406   1.407       .  S
S404        H405   1.407       .  S
C409        C410   1.406       .  A
C409        C414   1.415       .  A
C410        C411   1.402       .  A
C410        H419   1.084       .  S
C411        C412   1.414       .  A
C411        S415   1.803       .  S
C412        C413   1.403       .  A
C413        C414   1.398       .  A
C413        H420   1.084       .  S
C414        S416   1.799       .  S
S415        H418   1.407       .  S
S416        H417   1.407       .  S
C421        C422   1.403       .  A
C421        C426   1.416       .  A
C422        C423   1.400       .  A
C422        H431   1.084       .  S
C423        C424   1.416       .  A
C423        S427   1.804       .  S
C424        C425   1.403       .  A
C425        C426   1.400       .  A
C425        H432   1.084       .  S
C426        S428   1.804       .  S
S427        H430   1.407       .  S
S428        H429   1.407       .  S
C433        C434   1.404       .  A
C433        C438   1.410       .  A
C434        C435   1.407       .  A
C434        H443   1.084       .  S
C435        C436   1.418       .  A
C435        S439   1.801       .  S
C436        C437   1.407       .  A
C437        C438   1.390       .  A
C437        H444   1.084       .  S
C438        S440   1.807       .  S
S439        H442   1.407       .  S
S440        H441   1.407       .  S
C445        C446   1.404       .  A
C445        C450   1.414   1_556  A
C446        C447   1.399       .  A
C446        H455   1.084       .  S
C447        C448   1.413       .  A
C447        S451   1.801       .  S
C448        C449   1.403   1_556  A
C449        C450   1.398       .  A
C449        H456   1.084       .  S
C450        S452   1.804       .  S
S451        H454   1.407       .  S
S452        H453   1.407       .  S
C457        C458   1.403   1_554  A
C457        C462   1.414       .  A
C458        C459   1.401       .  A
C458        H467   1.084       .  S
C459        C460   1.414       .  A
C459        S463   1.804       .  S
C460        C461   1.403   1_556  A
C461        C462   1.400       .  A
C461        H468   1.084       .  S
C462        S464   1.804       .  S
S463        H466   1.407       .  S
S464        H465   1.407       .  S
C469        C470   1.404       .  A
C469        C474   1.415       .  A
C470        C471   1.400       .  A
C470        H479   1.085       .  S
C471        C472   1.417       .  A
C471        S475   1.803       .  S
C472        C473   1.403       .  A
C473        C474   1.397       .  A
C473        H480   1.084       .  S
C474        S476   1.804       .  S
S475        H478   1.407       .  S
S476        H477   1.407       .  S
C481        C482   1.405       .  A
C481        C486   1.417       .  A
C482        C483   1.401       .  A
C482        H491   1.084       .  S
C483        C484   1.417       .  A
C483        S487   1.798       .  S
C484        C485   1.405       .  A
C485        C486   1.396       .  A
C485        H492   1.084       .  S
C486        S488   1.801       .  S
S487        H490   1.406       .  S
S488        H489   1.407       .  S
C493        C494   1.406       .  A
C493        C498   1.414       .  A
C494        C495   1.400       .  A
C494        H503   1.084       .  S
C495        C496   1.413       .  A
C495        S499   1.803       .  S
C496        C497   1.404       .  A
C497        C498   1.397       .  A
C497        H504   1.084       .  S
C498        S500   1.803       .  S
S499        H502   1.407       .  S
S500        H501   1.407       .  S
C505        C506   1.405       .  A
C505        C510   1.416       .  A
C506        C507   1.401       .  A
C506        H515   1.084       .  S
C507        C508   1.414       .  A
C507        S511   1.803       .  S
C508        C509   1.403       .  A
C509        C510   1.399       .  A
C509        H516   1.084       .  S
C510        S512   1.804       .  S
S511        H514   1.407       .  S
S512        H513   1.407       .  S
C517        C518   1.403       .  A
C517        C522   1.413       .  A
C518        C519   1.399   1_455  A
C518        H527   1.084       .  S
C519        C520   1.415       .  A
C519        S523   1.799       .  S
C520        C521   1.404       .  A
C521        C522   1.396   1_655  A
C521        H528   1.084       .  S
C522        S524   1.804       .  S
S523        H526   1.407       .  S
S524        H525   1.407       .  S
C529        C530   1.405       .  A
C529        C534   1.415   1_554  A
C530        C531   1.405       .  A
C530        H539   1.084       .  S
C531        C532   1.418       .  A
C531        S535   1.802       .  S
C532        C533   1.405   1_554  A
C533        C534   1.399       .  A
C533        H540   1.084       .  S
C534        S536   1.804       .  S
S535        H538   1.407       .  S
S536        H537   1.407       .  S
C541        C542   1.406       .  A
C541        C546   1.413   1_554  A
C542        C543   1.402       .  A
C542        H551   1.084       .  S
C543        C544   1.414       .  A
C543        S547   1.803       .  S
C544        C545   1.403   1_554  A
C545        C546   1.395       .  A
C545        H552   1.084       .  S
C546        S548   1.804       .  S
S547        H550   1.407       .  S
S548        H549   1.407       .  S
C553        C554   1.403       .  A
C553        C558   1.414   1_554  A
C554        C555   1.401   1_655  A
C554        H563   1.084       .  S
C555        C556   1.415       .  A
C555        S559   1.804       .  S
C556        C557   1.404   1_554  A
C557        C558   1.401   1_455  A
C557        H564   1.084       .  S
C558        S560   1.804       .  S
S559        H562   1.407       .  S
S560        H561   1.407       .  S
C565        C566   1.402       .  A
C565        C570   1.416       .  A
C566        C567   1.399       .  A
C566        H575   1.084       .  S
C567        C568   1.413       .  A
C567        S571   1.793       .  S
C568        C569   1.404       .  A
C569        C570   1.401       .  A
C569        H576   1.084       .  S
C570        S572   1.804       .  S
S571        H574   1.407       .  S
S572        H573   1.407       .  S
C577        C578   1.405       .  A
C577        C582   1.414       .  A
C578        C579   1.401       .  A
C578        H587   1.084       .  S
C579        C580   1.413       .  A
C579        S583   1.803       .  S
C580        C581   1.404       .  A
C581        C582   1.398       .  A
C581        H588   1.084       .  S
C582        S584   1.804       .  S
S583        H586   1.407       .  S
S584        H585   1.407       .  S
C589        C590   1.405       .  A
C589        C594   1.413       .  A
C590        C591   1.402       .  A
C590        H599   1.084       .  S
C591        C592   1.417       .  A
C591        S595   1.802       .  S
C592        C593   1.403       .  A
C593        C594   1.395       .  A
C593        H600   1.084       .  S
C594        S596   1.800       .  S
S595        H598   1.407       .  S
S596        H597   1.407       .  S
C601        C602   1.405       .  A
C601        C606   1.414       .  A
C602        C603   1.398       .  A
C602        H611   1.084       .  S
C603        C604   1.414       .  A
C603        S607   1.803       .  S
C604        C605   1.405       .  A
C605        C606   1.399       .  A
C605        H612   1.084       .  S
C606        S608   1.803       .  S
S607        H610   1.407       .  S
S608        H609   1.407       .  S
C613        C614   1.406       .  A
C613        C618   1.412       .  A
C614        C615   1.404   1_565  A
C614        H623   1.084       .  S
C615        C616   1.415       .  A
C615        S619   1.802       .  S
C616        C617   1.401       .  A
C617        C618   1.392   1_545  A
C617        H624   1.085       .  S
C618        S620   1.798       .  S
S619        H622   1.407       .  S
S620        H621   1.407       .  S
C625        C626   1.404       .  A
C625        C630   1.411       .  A
C626        C627   1.401       .  A
C626        H635   1.084       .  S
C627        C628   1.414       .  A
C627        S631   1.803       .  S
C628        C629   1.406       .  A
C629        C630   1.399       .  A
C629        H636   1.084       .  S
C630        S632   1.804       .  S
S631        H634   1.407       .  S
S632        H633   1.407       .  S
C637        C638   1.406       .  A
C637        C642   1.415       .  A
C638        C639   1.402       .  A
C638        H647   1.084       .  S
C639        C640   1.416       .  A
C639        S643   1.804       .  S
C640        C641   1.403       .  A
C641        C642   1.397       .  A
C641        H648   1.084       .  S
C642        S644   1.799       .  S
S643        H646   1.407       .  S
S644        H645   1.407       .  S
C649        C650   1.401       .  A
C649        C654   1.415       .  A
C650        C651   1.394       .  A
C650        H659   1.084       .  S
C651        C652   1.415       .  A
C651        S655   1.800       .  S
C652        C653   1.406       .  A
C653        C654   1.403       .  A
C653        H660   1.084       .  S
C654        S656   1.803       .  S
S655        H658   1.407       .  S
S656        H657   1.407       .  S
C661        C662   1.404       .  A
C661        C666   1.415   1_554  A
C662        C663   1.398       .  A
C662        H671   1.084       .  S
C663        C664   1.414       .  A
C663        S667   1.801       .  S
C664        C665   1.403   1_554  A
C665        C666   1.400       .  A
C665        H672   1.084       .  S
C666        S668   1.798       .  S
S667        H670   1.407       .  S
S668        H669   1.407       .  S
C673        C674   1.403       .  A
C673        C678   1.414   1_556  A
C674        C675   1.401       .  A
C674        H683   1.084       .  S
C675        C676   1.415       .  A
C675        S679   1.803       .  S
C676        C677   1.404   1_556  A
C677        C678   1.399       .  A
C677        H684   1.084       .  S
C678        S680   1.804       .  S
S679        H682   1.407       .  S
S680        H681   1.407       .  S
C685        C686   1.404   1_554  A
C685        C690   1.414       .  A
C686        C687   1.399   1_565  A
C686        H695   1.084       .  S
C687        C688   1.412       .  A
C687        S691   1.804       .  S
C688        C689   1.403   1_556  A
C689        C690   1.399   1_545  A
C689        H696   1.084       .  S
C690        S692   1.804       .  S
S691        H694   1.407       .  S
S692        H693   1.407       .  S
C697        C698   1.405       .  A
C697        C702   1.414   1_554  A
C698        C699   1.400       .  A
C698        H707   1.084       .  S
C699        C700   1.413       .  A
C699        S703   1.804       .  S
C700        C701   1.403   1_554  A
C701        C702   1.400       .  A
C701        H708   1.084       .  S
C702        S704   1.803       .  S
S703        H706   1.406       .  S
S704        H705   1.407       .  S
