geometry optimzed in LAMMPS
_audit_creation_date              2020-12-01 
_audit_creation_method            'lammps2cif' 
_symmetry_space_group_name_H-M    'P1' 
_symmetry_Int_Tables_number       1 
_symmetry_cell_setting            triclinic 
loop_ 
_symmetry_equiv_pos_as_xyz 
  x,y,z 
_cell_length_a                    42.44226601 
_cell_length_b                    42.57412665006923 
_cell_length_c                    39.58904492951073 
_cell_angle_alpha                 89.08131683426367 
_cell_angle_beta                  91.21742215353615 
_cell_angle_gamma                 119.849729609649 
loop_ 
_atom_site_label 
_atom_site_type_symbol 
_atom_site_fract_x 
_atom_site_fract_y 
_atom_site_fract_z 
_atom_site_charge 
Zn1        Zn  0.32767204  0.20718325  0.40060891     1.49700
Zn2        Zn  0.32597198  0.16574895  0.33254381     1.49400
Zn3        Zn  0.37747681  0.16948690  0.39395907     1.49100
Zn4        Zn  0.29364204  0.11950111  0.40040688     1.49500
O5          O  0.33108725  0.16596180  0.38195626    -1.81400
O6          O  0.32301616  0.23831991  0.36200529    -0.72000
O7          O  0.37186295  0.17397895  0.30950855    -0.71900
O8          O  0.40643116  0.21168095  0.42408755    -0.71400
O9          O  0.31581268  0.20501289  0.31666219    -0.72100
O10         O  0.37335940  0.23859593  0.43007178    -0.71700
O11         O  0.40658970  0.17502007  0.35279935    -0.72200
O12         O  0.31308627  0.09246112  0.42906970    -0.71600
O13         O  0.28360925  0.11861345  0.31635225    -0.72400
O14         O  0.37219286  0.12657533  0.42058968    -0.71800
O15         O  0.26094651  0.08720442  0.36372598    -0.72300
O16         O  0.26090393  0.12762374  0.42878870    -0.72200
O17         O  0.28156281  0.18704076  0.42960459    -0.71900
C18         C  0.31684031  0.23235994  0.33028876     0.79800
C19         C  0.40124494  0.17652828  0.32118644     0.80300
C20         C  0.40188147  0.23636005  0.43666403     0.79300
C21         C  0.34557126  0.09901912  0.43383483     0.79700
C22         C  0.25990687  0.09053288  0.33183863     0.80800
C23         C  0.25817534  0.15455092  0.43792324     0.79900
C24         C  0.47694400  0.51450241  0.50562258     0.82900
N25         N  0.00491241  0.02425914  0.50530735    -0.75400
C26         C  0.03464462  0.02021089  0.50824732     0.85400
N27         N  0.03058568  0.98650473  0.51007270    -0.75300
C28         C  0.50669034  0.48046727  0.50606174     0.85500
N29         N  0.47581245  0.48221021  0.50853277    -0.77000
C30         C  0.33959984  0.02676632  0.49769774     0.82900
N31         N  0.37461777  0.03386050  0.49934322    -0.75400
C32         C  0.37188166  0.00578508  0.99702647     0.85400
N33         N  0.33106345  0.47055175  0.00458220    -0.75300
C34         C  0.30116717  0.47384772  0.00891175     0.85500
N35         N  0.30474508  0.99862831  0.00119403    -0.77000
C36         C  0.18740505  0.15985095  0.49262946     0.82900
N37         N  0.15897732  0.12519680  0.49234978    -0.75400
C38         C  0.13006248  0.11554447  0.51257748     0.85400
N39         N  0.13108735  0.14557366  0.02505979    -0.75300
C40         C  0.16147231  0.17722130  0.01712060     0.85500
N41         N  0.18632162  0.18467190  0.51280715    -0.77000
C42         C  0.01542503  0.34245341  0.02139833     0.82900
N43         N  0.99562936  0.30592810  0.50612528    -0.75400
C44         C  0.46418173  0.32072925  0.48980539     0.85400
N45         N  0.46955398  0.35486781  0.49056679    -0.75300
C46         C  0.98807744  0.36548113  0.50033774     0.85500
N47         N  0.01606379  0.37436246  0.02536759    -0.77000
Zn48       Zn  0.16417497  0.28870301  0.13989973     1.49700
Zn49       Zn  0.11663142  0.32730321  0.12666319     1.49400
Zn50       Zn  0.20279915  0.37420578  0.12636429     1.49100
Zn51       Zn  0.15898755  0.31826843  0.06519123     1.49500
O52         O  0.16086418  0.32704914  0.11436638    -1.81400
O53         O  0.12052169  0.26178399  0.16988902    -0.72000
O54         O  0.12774820  0.37295851  0.15028030    -0.71900
O55         O  0.23753816  0.36766524  0.15795598    -0.71400
O56         O  0.08582260  0.28613714  0.15788211    -0.72100
O57         O  0.21097159  0.30861126  0.16891892    -0.71700
O58         O  0.18786121  0.40694134  0.14989835    -0.72200
O59         O  0.20433013  0.35847748  0.04363684    -0.71600
O60         O  0.08667239  0.32436318  0.08589951    -0.72400
O61         O  0.23053690  0.39952323  0.08439307    -0.71800
O62         O  0.11438159  0.31735773  0.04212160    -0.72300
O63         O  0.15774986  0.27069630  0.05605013    -0.72200
O64         O  0.16155227  0.25098469  0.10760796    -0.71900
C65         C  0.09129775  0.26290416  0.17344773     0.79800
C66         C  0.15672018  0.40207460  0.15763957     0.80300
C67         C  0.23738360  0.34083981  0.17292312     0.79300
C68         C  0.22910527  0.38933511  0.05401225     0.79700
C69         C  0.08860810  0.32075411  0.05429771     0.80800
C70         C  0.15883312  0.24713660  0.07563088     0.79900
C71         C  0.03929652  0.99377066  0.25776719     0.82900
N72         N  0.04017073  0.02594189  0.26099161    -0.75400
C73         C  0.00867143  0.02693111  0.26153819     0.85400
N74         N  0.46371431  0.49874313  0.24321150    -0.75300
C75         C  0.46165787  0.46589551  0.24427196     0.84500
N76         N  0.49263228  0.46381752  0.24390699    -0.77000
C77         C  0.17626526  0.48505055  0.21048712     0.82900
N78         N  0.14264836  0.48087248  0.21480780    -0.75400
C79         C  0.13787219  0.50261106  0.23628975     0.85400
N80         N  0.16554696  0.02310047  0.26665282    -0.75300
C81         C  0.19925970  0.02786502  0.26187497     0.85500
N82         N  0.20518082  0.51146110  0.22761479    -0.77000
C83         C  0.47958118  0.16941570  0.28332641     0.82900
N84         N  0.48391984  0.13993168  0.28419378    -0.75400
C85         C  0.50791204  0.13795904  0.26362597     0.85400
N86         N  0.03494110  0.14866618  0.23646236    -0.75300
C87         C  0.03407703  0.17939657  0.22887513     0.85500
N88         N  0.49992137  0.19749151  0.26201264    -0.77000
C89         C  0.30263431  0.33322988  0.23883522     0.82900
N90         N  0.33421077  0.36519709  0.23486939    -0.75400
C91         C  0.36327320  0.37375333  0.25559258     0.85400
N92         N  0.36076389  0.35053660  0.28059971    -0.75300
C93         C  0.32972809  0.31840680  0.28475335     0.85500
N94         N  0.30070459  0.30962783  0.26359228    -0.77000
C95         C  0.51093443  0.07757740  0.26241526    -0.10600
C96         C  0.51059477  0.10569361  0.26319235    -0.12100
C97         C  0.07303971  0.49676765  0.24200359    -0.10600
C98         C  0.10235554  0.49873679  0.23980406    -0.12100
C99         C  0.39732469  0.40664224  0.25044677    -0.10600
C100        C  0.42668994  0.43354054  0.24711631    -0.12100
C101        C  0.06259361  0.23652412  0.19574704    -0.13700
C102        C  0.06311646  0.20715119  0.20779829    -0.28900
H103        H  0.03990835  0.24060786  0.20121176     0.15300
H104        H  0.08529993  0.20264053  0.20129267     0.15900
C105        C  0.18141765  0.45994479  0.18889877    -0.13700
C106        C  0.15304599  0.42995095  0.17600971    -0.28900
H107        H  0.20889778  0.46509596  0.18522917     0.15300
H108        H  0.12558050  0.42447462  0.18049076     0.15900
C109        C  0.26913105  0.34835392  0.19507996    -0.13700
C110        C  0.27049178  0.32393207  0.21638768    -0.28900
H111        H  0.29209689  0.37576449  0.19435603     0.15300
H112        H  0.24717941  0.29681346  0.21810273     0.15900
C113        C  0.04060502  0.33583508  0.04257528    -0.13700
C114        C  0.06069481  0.32167612  0.03155154    -0.28900
H115        H  0.04559913  0.34696665  0.06790502     0.15300
H116        H  0.05836917  0.31327097  0.00542669     0.15900
C117        C  0.16713842  0.21186140  0.03076031    -0.13700
C118        C  0.15530845  0.21356484  0.06155813    -0.28900
H119        H  0.18200468  0.23637498  0.01576145     0.15300
H120        H  0.14328012  0.18951538  0.07753588     0.15900
C121        C  0.27259807  0.44963604  0.03221410    -0.13700
C122        C  0.25732402  0.41355490  0.03028371    -0.28900
H123        H  0.26261108  0.46159739  0.05013046     0.15300
H124        H  0.26488329  0.40159263  0.01018530     0.15900
C125        C  0.07024895  0.05174290  0.50958922    -0.10600
C126        C  0.09872868  0.07989961  0.51079069    -0.12100
C127        C  0.98888321  0.42771959  0.49458371    -0.10600
C128        C  0.98663121  0.39834154  0.49623300    -0.12100
C129        C  0.43482034  0.00756365  0.99263153    -0.10600
C130        C  0.40673690  0.00817633  0.99405826    -0.12100
C131        C  0.45395845  0.17069938  0.30689626    -0.13700
C132        C  0.42950333  0.18053674  0.29750920    -0.28900
H133        H  0.45250559  0.15918310  0.33190439     0.15300
H134        H  0.42857206  0.18886064  0.27158808     0.15900
C135        C  0.35375578  0.07522518  0.45543802    -0.13700
C136        C  0.32912375  0.04807900  0.47472725    -0.28900
H137        H  0.38191568  0.08150988  0.45641876     0.15300
H138        H  0.30102039  0.04196712  0.47431318     0.15900
C139        C  0.43089927  0.26219794  0.45966578    -0.13700
C140        C  0.43421614  0.29401679  0.46811488    -0.28900
H141        H  0.45112153  0.25536684  0.46875021     0.15300
H142        H  0.41501466  0.30157970  0.45762902     0.15900
C143        C  0.22932918  0.06157657  0.31296549    -0.13700
C144        C  0.23086819  0.05645816  0.27990502    -0.28900
H145        H  0.20484781  0.04363035  0.32677133     0.15300
H146        H  0.25613054  0.07208082  0.26641161     0.15900
C147        C  0.31089351  0.25720122  0.30774748    -0.13700
C148        C  0.32908175  0.29329508  0.31158189    -0.28900
H149        H  0.29497048  0.24589538  0.28475160     0.15300
H150        H  0.34787691  0.30486492  0.33284191     0.15900
C151        C  0.22610680  0.14604401  0.45808614    -0.13700
C152        C  0.21977888  0.17083806  0.47179232    -0.28900
H153        H  0.20687325  0.11748037  0.46214834     0.15300
H154        H  0.23933231  0.19947781  0.46894943     0.15900
Zn155      Zn  0.32631842  0.21054929  0.87925691     1.49700
Zn156      Zn  0.32173690  0.16153380  0.81695826     1.49400
Zn157      Zn  0.37419088  0.17226434  0.88177424     1.49100
Zn158      Zn  0.28765401  0.12475811  0.88919562     1.49500
O159        O  0.32739782  0.16698842  0.86662997    -1.81400
O160        O  0.32380956  0.23797516  0.83859007    -0.72000
O161        O  0.36728041  0.16544093  0.79683261    -0.71900
O162        O  0.40401207  0.21728836  0.91087735    -0.71400
O163        O  0.31633382  0.20242286  0.79511700    -0.72100
O164        O  0.37092681  0.24432054  0.90548606    -0.71700
O165        O  0.40366321  0.17456982  0.84145331    -0.72200
O166        O  0.30633909  0.09573277  0.91644238    -0.71600
O167        O  0.27687735  0.11341647  0.80402914    -0.72400
O168        O  0.36603324  0.12882459  0.90924835    -0.71800
O169        O  0.25151387  0.09183610  0.85402077    -0.72300
O170        O  0.26000712  0.14018118  0.91992185    -0.72200
O171        O  0.28438143  0.19914157  0.90946756    -0.71900
C172        C  0.31948637  0.23149610  0.80704530     0.79800
C173        C  0.39744909  0.17107292  0.80968105     0.80300
C174        C  0.39871072  0.24359927  0.91701843     0.79300
C175        C  0.33849734  0.10111264  0.92132050     0.79700
C176        C  0.25090449  0.08986825  0.82190870     0.80800
C177        C  0.26118414  0.17038675  0.92434477     0.79900
C178        C  0.45171644  0.48905620  0.98184249     0.82900
N179        N  0.99786408  0.02561936  0.01343783    -0.75400
C180        C  0.02751913  0.02190477  0.01867975     0.85400
N181        N  0.02370192  0.98836611  0.02164920    -0.75300
C182        C  0.48286935  0.45649469  0.98905973     0.85500
N183        N  0.45117185  0.45710908  0.98675709    -0.77000
C184        C  0.32924827  0.02306783  0.97916658     0.82900
N185        N  0.36274053  0.02628936  0.97705937    -0.75400
C186        C  0.38440616  0.01499100  0.52084057     0.85400
N187        N  0.35412754  0.48509475  0.53179712    -0.75300
C188        C  0.31953415  0.47894833  0.53109408     0.85500
N189        N  0.31423841  0.00011380  0.51756916    -0.77000
C190        C  0.18057265  0.14499191  0.98294955     0.82900
N191        N  0.15014926  0.11367618  0.99108637    -0.75400
C192        C  0.12539627  0.11389164  0.01195113     0.85400
N193        N  0.12962032  0.14038166  0.53321884    -0.75300
C194        C  0.15759325  0.17496064  0.53324589     0.85500
N195        N  0.18599729  0.17691192  0.99568513    -0.77000
C196        C  0.01406789  0.33418832  0.52771740     0.82900
N197        N  0.98941628  0.31645658  0.00111749    -0.75400
C198        C  0.47176263  0.30540822  0.98167944     0.85400
N199        N  0.46811548  0.33538956  0.98014638    -0.75300
C200        C  0.99172523  0.38092882  0.00878491     0.85500
N201        N  0.01003221  0.36374264  0.52472676    -0.77000
Zn202      Zn  0.16553894  0.28563776  0.63897241     1.49700
Zn203      Zn  0.12261961  0.32997603  0.64149644     1.49400
Zn204      Zn  0.21103481  0.37097298  0.63948042     1.49100
Zn205      Zn  0.16417114  0.33000268  0.57471024     1.49500
O206        O  0.16556868  0.32938275  0.62398841    -1.81400
O207        O  0.12109034  0.25376509  0.66417870    -0.72000
O208        O  0.13967633  0.37586713  0.66952217    -0.71900
O209        O  0.24232373  0.35548007  0.66636153    -0.71400
O210        O  0.09197375  0.28455838  0.67069198    -0.72100
O211        O  0.20808233  0.29565159  0.66929437    -0.71700
O212        O  0.20011216  0.40220315  0.66930930    -0.72200
O213        O  0.20285359  0.37751622  0.55588275    -0.71600
O214        O  0.08937284  0.32861497  0.60228286    -0.72400
O215        O  0.23979258  0.40250239  0.60014239    -0.71800
O216        O  0.11592485  0.32148307  0.55745394    -0.72300
O217        O  0.17162498  0.29098426  0.55523073    -0.72200
O218        O  0.16667168  0.25704631  0.60019866    -0.71900
C219        C  0.09486290  0.25635695  0.67575920     0.79800
C220        C  0.17114834  0.40145658  0.67842501     0.80300
C221        C  0.23698656  0.32474839  0.67686510     0.79300
C222        C  0.23213393  0.40257426  0.56883083     0.79700
C223        C  0.08978427  0.32315547  0.57067135     0.80800
C224        C  0.17020737  0.26299058  0.56857818     0.79900
C225        C  0.02893892  0.00251948  0.75123298     0.82900
N226        N  0.03103517  0.03539939  0.75144262    -0.75400
C227        C  0.00019606  0.03760734  0.75074591     0.85400
N228        N  0.48292684  0.50930126  0.75514242    -0.75300
C229        C  0.48176403  0.47693396  0.75359646     0.84500
N230        N  0.51300517  0.47577559  0.75125363    -0.77000
C231        C  0.14973177  0.46577488  0.72805250     0.82900
N232        N  0.11913344  0.46732647  0.73383784    -0.75400
C233        C  0.12058426  0.49442857  0.75246487     0.85400
N234        N  0.15253368  0.01977699  0.76356943    -0.75300
C235        C  0.18328858  0.01770970  0.76019782     0.85500
N236        N  0.18224807  0.49200405  0.74092162    -0.77000
C237        C  0.47816690  0.16492355  0.77580260     0.82900
N238        N  0.48588214  0.13760259  0.77841710    -0.75400
C239        C  0.51218251  0.13800955  0.75930219     0.85400
N240        N  0.02055981  0.16180938  0.73332244    -0.75300
C241        C  0.01794462  0.19240267  0.73458552     0.85500
N242        N  0.49736024  0.19312568  0.75421033    -0.77000
C243        C  0.32569278  0.35074366  0.72599431     0.82900
N244        N  0.35840300  0.38152314  0.72830791    -0.75400
C245        C  0.38403873  0.38376468  0.75058178     0.85400
N246        N  0.37694365  0.35527343  0.77099956    -0.75300
C247        C  0.34456624  0.32407289  0.76867975     0.85500
N248        N  0.31876614  0.32171675  0.74610853    -0.77000
C249        C  0.52166113  0.08131023  0.75845072    -0.10600
C250        C  0.51839846  0.10780625  0.76001852    -0.12100
C251        C  0.06107611  0.49869055  0.75996528    -0.10600
C252        C  0.08818610  0.49651010  0.75717182    -0.12100
C253        C  0.41854577  0.41639385  0.75261762    -0.10600
C254        C  0.44745225  0.44398105  0.75349970    -0.12100
C255        C  0.06811189  0.22501941  0.69534809    -0.13700
C256        C  0.04125620  0.22424277  0.71324225    -0.28900
H257        H  0.07199272  0.20163611  0.69601037     0.15300
H258        H  0.03758614  0.24772542  0.71359948     0.15900
C259        C  0.14649726  0.43532707  0.70779172    -0.13700
C260        C  0.17498761  0.43160011  0.69959554    -0.28900
H261        H  0.11945001  0.41538414  0.69899836     0.15300
H262        H  0.20215486  0.45170987  0.70793749     0.15900
C263        C  0.26449334  0.32237391  0.69861629    -0.13700
C264        C  0.29795938  0.35084670  0.70292543    -0.28900
H265        H  0.25704776  0.29683086  0.71126693     0.15300
H266        H  0.30533984  0.37597499  0.68947132     0.15900
C267        C  0.03967990  0.33416706  0.55358782    -0.13700
C268        C  0.05970322  0.31848405  0.54796497    -0.28900
H269        H  0.04522199  0.35082371  0.57586496     0.15300
H270        H  0.05638429  0.30472642  0.52414506     0.15900
C271        C  0.15645809  0.20161306  0.55533783    -0.13700
C272        C  0.17249887  0.23675131  0.54678488    -0.28900
H273        H  0.14046029  0.19191074  0.57814446     0.15300
H274        H  0.18578180  0.24599483  0.52257413     0.15900
C275        C  0.29309527  0.45192427  0.55451261    -0.13700
C276        C  0.25765422  0.43206489  0.54662514    -0.28900
H277        H  0.30357467  0.44608817  0.57763557     0.15300
H278        H  0.24762715  0.43584350  0.52226173     0.15900
C279        C  0.06292440  0.05353680  0.01947778    -0.10600
C280        C  0.09188599  0.08098130  0.01770572    -0.12100
C281        C  0.99520149  0.44408802  0.01528731    -0.10600
C282        C  0.99323360  0.41504297  0.01258786    -0.12100
C283        C  0.44998276  0.02228344  0.51933971    -0.10600
C284        C  0.42085619  0.02080470  0.52067751    -0.12100
C285        C  0.45030446  0.16423379  0.79786897    -0.13700
C286        C  0.42595815  0.17369634  0.78708167    -0.28900
H287        H  0.44810126  0.15302815  0.82313232     0.15300
H288        H  0.42583502  0.18163349  0.76088065     0.15900
C289        C  0.34532813  0.07527934  0.94114962    -0.13700
C290        C  0.31984397  0.04677746  0.95851101    -0.28900
H291        H  0.37323695  0.08079612  0.94206686     0.15300
H292        H  0.29206137  0.04158684  0.95861210     0.15900
C293        C  0.42432855  0.27448457  0.93804206    -0.13700
C294        C  0.44994385  0.27451817  0.95870059    -0.28900
H295        H  0.42009102  0.29763630  0.93790690     0.15300
H296        H  0.45368877  0.25108049  0.95991361     0.15900
C297        C  0.21796388  0.06042306  0.80562326    -0.13700
C298        C  0.21783495  0.04553382  0.77588387    -0.28900
H299        H  0.19263774  0.05011501  0.81914359     0.15300
H300        H  0.24324994  0.05322088  0.76342878     0.15900
C301        C  0.31975381  0.25911941  0.78366124    -0.13700
C302        C  0.33793272  0.29429399  0.79219336    -0.28900
H303        H  0.30835835  0.25121451  0.75835627     0.15300
H304        H  0.35211487  0.30204184  0.81644130     0.15900
C305        C  0.23540087  0.17281183  0.94724630    -0.13700
C306        C  0.20697147  0.14329340  0.96036977    -0.28900
H307        H  0.23955444  0.19951640  0.95285326     0.15300
H308        H  0.20232562  0.11660768  0.95385614     0.15900
Zn309      Zn  0.33026430  0.70625176  0.39642015     1.49700
Zn310      Zn  0.32859362  0.66655781  0.32659708     1.49400
Zn311      Zn  0.37921964  0.66877628  0.38851832     1.49100
Zn312      Zn  0.29326442  0.61883756  0.39205997     1.49500
O313        O  0.33282479  0.66540230  0.37603043    -1.81400
O314        O  0.32915859  0.73953305  0.35906353    -0.72000
O315        O  0.37353256  0.67249027  0.30431552    -0.71900
O316        O  0.40927668  0.71125305  0.41937908    -0.71400
O317        O  0.32292018  0.70868567  0.31207913    -0.72100
O318        O  0.37495651  0.73649687  0.42671800    -0.71700
O319        O  0.40800950  0.67227638  0.34734134    -0.72200
O320        O  0.31154315  0.59005880  0.41919846    -0.71600
O321        O  0.28514049  0.62138627  0.30783738    -0.72400
O322        O  0.37132191  0.62476610  0.41431874    -0.71800
O323        O  0.26063283  0.58834373  0.35390746    -0.72300
O324        O  0.26069267  0.62720747  0.42118334    -0.72200
O325        O  0.28376963  0.68687413  0.42453611    -0.71900
C326        C  0.32505983  0.73588762  0.32703373     0.79800
C327        C  0.40228871  0.67358644  0.31576590     0.80300
C328        C  0.40399774  0.73520099  0.43278805     0.79300
C329        C  0.34377948  0.59638642  0.42529615     0.79700
C330        C  0.26043311  0.59299206  0.32211077     0.80800
C331        C  0.25920256  0.65447118  0.43161587     0.79900
C332        C  0.48190995  0.01887023  0.51655016     0.82900
N333        N  0.00334484  0.53158534  0.49675262    -0.75400
C334        C  0.03271194  0.52682687  0.49627868     0.85400
N335        N  0.02794257  0.49285822  0.49526092    -0.75300
C336        C  0.50745761  0.98116263  0.51241369     0.85500
N337        N  0.47806582  0.98531883  0.51595633    -0.77000
C338        C  0.33498404  0.52241576  0.48753891     0.82900
N339        N  0.36942555  0.52795401  0.48825570    -0.75400
C340        C  0.35810907  0.49410265  0.98418117     0.85400
N341        N  0.34772336  0.98225350  0.01950284    -0.75300
C342        C  0.31407283  0.97831375  0.02151552     0.85500
N343        N  0.29832640  0.50064715  0.99270041    -0.77000
C344        C  0.19081805  0.66130401  0.48911011     0.82900
N345        N  0.16047597  0.62810259  0.48576885    -0.75400
C346        C  0.13109094  0.61879760  0.50522076     0.85400
N347        N  0.14292113  0.66370329  0.01929168    -0.75300
C348        C  0.17432779  0.69391772  0.01082621     0.85500
N349        N  0.19120763  0.68517314  0.51170160    -0.77000
C350        C  0.01209727  0.82647865  0.04113128     0.82900
N351        N  0.99571491  0.79750997  0.51692256    -0.75400
C352        C  0.46254634  0.81952571  0.48805707     0.85400
N353        N  0.46676327  0.85332220  0.48924766    -0.75300
C354        C  0.98957476  0.85805201  0.51514518     0.85500
N355        N  0.00911206  0.85667946  0.04298839    -0.77000
Zn356      Zn  0.18232552  0.79361905  0.14477456     1.49700
Zn357      Zn  0.12494644  0.82124598  0.14249046     1.49400
Zn358      Zn  0.21053282  0.87811915  0.13681713     1.49100
Zn359      Zn  0.16717269  0.82468422  0.07503018     1.49500
O360        O  0.17130964  0.82949562  0.12466795    -1.81400
O361        O  0.14209143  0.75856121  0.17488525    -0.72000
O362        O  0.13202991  0.86434776  0.16866050    -0.71900
O363        O  0.24881110  0.87572947  0.16644480    -0.71400
O364        O  0.10125172  0.77671711  0.17279768    -0.72100
O365        O  0.22942022  0.81690675  0.17227229    -0.71700
O366        O  0.19053207  0.90502314  0.16268872    -0.72200
O367        O  0.20474139  0.87094783  0.05225396    -0.71600
O368        O  0.08980930  0.81509551  0.10471817    -0.72400
O369        O  0.23574332  0.90721866  0.09504663    -0.71800
O370        O  0.11764786  0.81487779  0.05787275    -0.72300
O371        O  0.17406536  0.78319785  0.06001378    -0.72200
O372        O  0.18470553  0.76262558  0.10851652    -0.71900
C373        C  0.11158875  0.75473575  0.18317805     0.79800
C374        C  0.15905584  0.89574545  0.17382369     0.80300
C375        C  0.25263852  0.84989131  0.17849099     0.79300
C376        C  0.23022835  0.90098194  0.06345133     0.79700
C377        C  0.09040852  0.81296063  0.07271291     0.80800
C378        C  0.18024223  0.76085124  0.07659542     0.79900
C379        C  0.03942831  0.49726823  0.24425618     0.82900
N380        N  0.04044898  0.52943751  0.24746645    -0.75400
C381        C  0.00918340  0.53058695  0.24947591     0.85400
N382        N  0.47629016  0.01227413  0.26150099    -0.75300
C383        C  0.47426707  0.97949949  0.26033673     0.84500
N384        N  0.50517914  0.97752133  0.25895880    -0.77000
C385        C  0.17464574  0.97851045  0.22461603     0.82900
N386        N  0.14088265  0.97393148  0.22927718    -0.75400
C387        C  0.13640783  0.99644908  0.25009590     0.85400
N388        N  0.16675275  0.52837926  0.25396152    -0.75300
C389        C  0.20050672  0.53292401  0.24959927     0.85500
N390        N  0.20375352  0.00588166  0.24055057    -0.77000
C391        C  0.47249053  0.65756912  0.27253003     0.82900
N392        N  0.47500174  0.62714778  0.26994588    -0.75400
C393        C  0.49733538  0.62542754  0.24702784     0.85400
N394        N  0.03506017  0.65664053  0.23865174    -0.75300
C395        C  0.03359301  0.68784850  0.23981432     0.85500
N396        N  0.49292432  0.68667505  0.25238750    -0.77000
C397        C  0.31910410  0.84355748  0.24255095     0.82900
N398        N  0.34959366  0.87678482  0.24164996    -0.75400
C399        C  0.37765072  0.88474789  0.26354045     0.85400
N400        N  0.37519715  0.85965627  0.28649651    -0.75300
C401        C  0.34504803  0.82640260  0.28744312     0.85500
N402        N  0.31717551  0.81839234  0.26525438    -0.77000
C403        C  0.49847316  0.56416828  0.24194477    -0.10600
C404        C  0.49879656  0.59260568  0.24368643    -0.12100
C405        C  0.07268692  0.99285844  0.25598052    -0.10600
C406        C  0.10124898  0.99330965  0.25359753    -0.12100
C407        C  0.41067083  0.91907903  0.26168576    -0.10600
C408        C  0.43944611  0.94692505  0.26080210    -0.12100
C409        C  0.08779059  0.72339098  0.20469753    -0.13700
C410        C  0.05757262  0.71961515  0.21880486    -0.28900
H411        H  0.09558943  0.70291465  0.20920809     0.15300
H412        H  0.05062106  0.74085029  0.21559663     0.15900
C413        C  0.18038311  0.95378512  0.20322467    -0.13700
C414        C  0.15302744  0.92153800  0.19325671    -0.28900
H415        H  0.20817813  0.96156020  0.19707189     0.15300
H416        H  0.12536424  0.91318590  0.20045432     0.15900
C417        C  0.28483856  0.85904096  0.20028213    -0.13700
C418        C  0.28792903  0.83416361  0.21923932    -0.28900
H419        H  0.30586317  0.88732293  0.20178326     0.15300
H420        H  0.26620566  0.80611847  0.21871245     0.15900
C421        C  0.03948312  0.82394556  0.06271242    -0.13700
C422        C  0.05937580  0.80951124  0.05214049    -0.28900
H423        H  0.04630472  0.83809182  0.08670460     0.15300
H424        H  0.05518123  0.79851561  0.02681193     0.15900
C425        C  0.18321874  0.72867263  0.02611324    -0.13700
C426        C  0.17931757  0.73002683  0.05948020    -0.28900
H427        H  0.19172143  0.75246336  0.01017739     0.15300
H428        H  0.17327513  0.70642023  0.07499933     0.15900
C429        C  0.28877844  0.95278648  0.04663592    -0.13700
C430        C  0.25398058  0.92899432  0.03897451    -0.28900
H431        H  0.30005058  0.95098735  0.07101966     0.15300
H432        H  0.24366590  0.92830693  0.01347481     0.15900
C433        C  0.06876267  0.55772801  0.49805002    -0.10600
C434        C  0.09812632  0.58476205  0.50063902    -0.12100
C435        C  0.99227651  0.92121306  0.51077820    -0.10600
C436        C  0.98945787  0.89163273  0.51252571    -0.12100
C437        C  0.41827169  0.49008284  0.98073900    -0.10600
C438        C  0.39065296  0.49172506  0.98131403    -0.12100
C439        C  0.44804100  0.65866380  0.29764411    -0.13700
C440        C  0.42922116  0.67583451  0.29160597    -0.28900
H441        H  0.44306993  0.64243734  0.32047932     0.15300
H442        H  0.43133005  0.68899319  0.26733643     0.15900
C443        C  0.35060992  0.57123629  0.44590579    -0.13700
C444        C  0.32521587  0.54409901  0.46455131    -0.28900
H445        H  0.37855780  0.57686160  0.44717947     0.15300
H446        H  0.29740586  0.53888894  0.46415769     0.15900
C447        C  0.43246977  0.76151261  0.45613887    -0.13700
C448        C  0.43397649  0.79251038  0.46527588    -0.28900
H449        H  0.45341157  0.75570354  0.46516188     0.15300
H450        H  0.41404805  0.79906197  0.45479435     0.15900
C451        C  0.22979451  0.56523412  0.30198021    -0.13700
C452        C  0.23199687  0.56068427  0.26881639    -0.28900
H453        H  0.20472608  0.54743147  0.31504793     0.15300
H454        H  0.25778136  0.57607162  0.25607454     0.15900
C455        C  0.32280668  0.76348936  0.30588772    -0.13700
C456        C  0.34351654  0.79905457  0.31182796    -0.28900
H457        H  0.30682403  0.75445593  0.28260978     0.15300
H458        H  0.36209489  0.80820824  0.33344957     0.15900
C459        C  0.22719643  0.64668709  0.45172142    -0.13700
C460        C  0.22345858  0.67161765  0.46869211    -0.28900
H461        H  0.20588624  0.61848674  0.45312160     0.15300
H462        H  0.24515674  0.69967883  0.46864177     0.15900
Zn463      Zn  0.33216669  0.71584692  0.87228396     1.49700
Zn464      Zn  0.32562672  0.66377386  0.81246371     1.49400
Zn465      Zn  0.37869493  0.67719795  0.87808318     1.49100
Zn466      Zn  0.29210540  0.63093709  0.88482653     1.49500
O467        O  0.33214589  0.67155244  0.86174274    -1.81400
O468        O  0.33290053  0.74271357  0.83067422    -0.72000
O469        O  0.37038116  0.66575313  0.79367753    -0.71900
O470        O  0.40783888  0.72229019  0.90770920    -0.71400
O471        O  0.32234646  0.70469345  0.78851814    -0.72100
O472        O  0.37532174  0.74954055  0.89961934    -0.71700
O473        O  0.40805954  0.67886687  0.83809931    -0.72200
O474        O  0.31037034  0.60198989  0.91200739    -0.71600
O475        O  0.27993037  0.61593075  0.80032340    -0.72400
O476        O  0.37026046  0.63359729  0.90535805    -0.71800
O477        O  0.25469182  0.59742056  0.85074707    -0.72300
O478        O  0.26628582  0.64855002  0.91511383    -0.72200
O479        O  0.28984675  0.70648410  0.90038089    -0.71900
C480        C  0.32816184  0.73512023  0.79941482     0.79800
C481        C  0.40096020  0.67289247  0.80661011     0.80300
C482        C  0.40238597  0.74872491  0.91277313     0.79300
C483        C  0.34210470  0.60630189  0.91706425     0.79700
C484        C  0.25367615  0.59384375  0.81879191     0.80800
C485        C  0.26735189  0.67895171  0.91711673     0.79900
C486        C  0.46672732  0.00389096  0.99239387     0.82900
N487        N  0.00544909  0.54598841  0.01949614    -0.75400
C488        C  0.03548340  0.54243999  0.01895350     0.85400
N489        N  0.03208190  0.50909050  0.01781408    -0.75300
C490        C  0.49286614  0.96644419  0.99291703     0.85500
N491        N  0.46303305  0.97035372  0.99180856    -0.77000
C492        C  0.32492818  0.52393938  0.97181358     0.82900
N493        N  0.35502847  0.52076901  0.96777598    -0.75400
C494        C  0.37897343  0.50936743  0.51024422     0.85400
N495        N  0.35912357  0.98881986  0.54086494    -0.75300
C496        C  0.32397825  0.98110796  0.53926252     0.85500
N497        N  0.30991604  0.49758851  0.50884542    -0.77000
C498        C  0.18906615  0.65872498  0.97619480     0.82900
N499        N  0.15759468  0.62872968  0.98483232    -0.75400
C500        C  0.13445874  0.63127103  0.00614114     0.85400
N501        N  0.13207174  0.64247678  0.52821680    -0.75300
C502        C  0.16193431  0.67568376  0.53145027     0.85500
N503        N  0.19728105  0.69154024  0.98894770    -0.77000
C504        C  0.01421471  0.82435521  0.53985991     0.82900
N505        N  0.99002971  0.79948506  0.01955259    -0.75400
C506        C  0.46993751  0.80936280  0.98153541     0.85400
N507        N  0.46835312  0.84045178  0.97822025    -0.75300
C508        C  0.98454181  0.86024323  0.02335335     0.85500
N509        N  0.01095981  0.85442314  0.53885695    -0.77000
Zn510      Zn  0.16991913  0.78239381  0.64462661     1.49700
Zn511      Zn  0.12673272  0.82579658  0.64867507     1.49400
Zn512      Zn  0.21427135  0.86921724  0.64520577     1.49100
Zn513      Zn  0.16910704  0.82827750  0.58091878     1.49500
O514        O  0.16976694  0.82645198  0.63019870    -1.81400
O515        O  0.12683314  0.75081774  0.67331760    -0.72000
O516        O  0.14210538  0.87279654  0.67403680    -0.71900
O517        O  0.24595193  0.85460303  0.67122715    -0.71400
O518        O  0.09881063  0.78250122  0.68073858    -0.72100
O519        O  0.21487990  0.79439506  0.67230223    -0.71700
O520        O  0.20255147  0.90005243  0.67468524    -0.72200
O521        O  0.20680356  0.87693735  0.56192861    -0.71600
O522        O  0.09193650  0.82026961  0.61008954    -0.72400
O523        O  0.24350077  0.90139224  0.60628530    -0.71800
O524        O  0.11977320  0.81711984  0.56421417    -0.72300
O525        O  0.17883492  0.79079473  0.56129283    -0.72200
O526        O  0.17010701  0.75369870  0.60471553    -0.71900
C527        C  0.10178877  0.75448424  0.68651859     0.79800
C528        C  0.17319347  0.89900389  0.68285296     0.80300
C529        C  0.24285115  0.82429965  0.68006843     0.79300
C530        C  0.23604112  0.90200740  0.57502638     0.79700
C531        C  0.09253167  0.81587912  0.57831103     0.80800
C532        C  0.17602901  0.76173558  0.57349128     0.79900
C533        C  0.02929501  0.50232870  0.76243623     0.82900
N534        N  0.03297809  0.53571871  0.76537634    -0.75400
C535        C  0.00308546  0.53937024  0.76739223     0.85400
N536        N  0.49001384  0.01630840  0.75427257    -0.75300
C537        C  0.48962813  0.98469944  0.74937745     0.84500
N538        N  0.52110811  0.98468870  0.74456833    -0.77000
C539        C  0.15013512  0.96465377  0.72771937     0.82900
N540        N  0.11974028  0.96720865  0.73118436    -0.75400
C541        C  0.12088608  0.99473139  0.74890766     0.85400
N542        N  0.15279314  0.52013457  0.76566234    -0.75300
C543        C  0.18378840  0.51910713  0.76004833     0.85500
N544        N  0.18210294  0.99027438  0.74195208    -0.77000
C545        C  0.47845498  0.66221844  0.77287370     0.82900
N546        N  0.48495131  0.63411096  0.77490399    -0.75400
C547        C  0.51007548  0.63340100  0.75489928     0.85400
N548        N  0.02887595  0.66459972  0.75091252    -0.75300
C549        C  0.02687122  0.69554251  0.75015737     0.85500
N550        N  0.49756767  0.69001891  0.75101357    -0.77000
C551        C  0.33494388  0.85500873  0.72353305     0.82900
N552        N  0.36665381  0.88685153  0.72558339    -0.75400
C553        C  0.39454778  0.88940634  0.74481629     0.85400
N554        N  0.39073497  0.86024765  0.76242271    -0.75300
C555        C  0.35925508  0.82817548  0.76030796     0.85500
N556        N  0.33124932  0.82553128  0.74087074    -0.77000
C557        C  0.51624079  0.57468818  0.75538913    -0.10600
C558        C  0.51480330  0.60227067  0.75546393    -0.12100
C559        C  0.06158064  0.00015132  0.75166536    -0.10600
C560        C  0.08879712  0.99786549  0.75114777    -0.12100
C561        C  0.42782421  0.92309214  0.74697743    -0.10600
C562        C  0.45592307  0.95135463  0.74841173    -0.12100
C563        C  0.07628848  0.72488674  0.70888706    -0.13700
C564        C  0.05040263  0.72588072  0.72718958    -0.28900
H565        H  0.07979468  0.70132036  0.71082031     0.15300
H566        H  0.04707801  0.74957165  0.72600094     0.15900
C567        C  0.14741997  0.93375978  0.70862020    -0.13700
C568        C  0.17611136  0.92949619  0.70277314    -0.28900
H569        H  0.12079217  0.91402061  0.69875752     0.15300
H570        H  0.20289998  0.94954724  0.71202962     0.15900
C571        C  0.27244280  0.82367211  0.69962881    -0.13700
C572        C  0.30471441  0.85387445  0.70375263    -0.28900
H573        H  0.26783891  0.79806781  0.71026686     0.15300
H574        H  0.30930092  0.87916108  0.69231318     0.15900
C575        C  0.03957338  0.82272279  0.56474189    -0.13700
C576        C  0.06149861  0.80993281  0.55655156    -0.28900
H577        H  0.04409780  0.83714496  0.58836268     0.15300
H578        H  0.05926331  0.79869525  0.53156609     0.15900
C579        C  0.16178722  0.70105806  0.55607020    -0.13700
C580        C  0.17945924  0.73687668  0.55050263    -0.28900
H581        H  0.14422564  0.68987831  0.57777746     0.15300
H582        H  0.19430130  0.74783012  0.52723240     0.15900
C583        C  0.29720021  0.95228448  0.56144699    -0.13700
C584        C  0.26172540  0.93225076  0.55326874    -0.28900
H585        H  0.30753872  0.94573248  0.58424745     0.15300
H586        H  0.25174374  0.93680118  0.52922744     0.15900
C587        C  0.07074146  0.57387142  0.01716688    -0.10600
C588        C  0.10021739  0.60004757  0.01332682    -0.12100
C589        C  0.98613582  0.92304878  0.02210918    -0.10600
C590        C  0.98414982  0.89378320  0.02323455    -0.12100
C591        C  0.44393643  0.51575607  0.50798166    -0.10600
C592        C  0.41480281  0.51403004  0.50951937    -0.12100
C593        C  0.45145005  0.66261283  0.79512803    -0.13700
C594        C  0.42885395  0.67421675  0.78434116    -0.28900
H595        H  0.44837747  0.65078363  0.82022203     0.15300
H596        H  0.42938567  0.68261582  0.75818910     0.15900
C597        C  0.34711429  0.57907432  0.93634458    -0.13700
C598        C  0.32013360  0.55178454  0.95340158    -0.28900
H599        H  0.37395456  0.58173659  0.93654031     0.15300
H600        H  0.29362374  0.54982633  0.95413714     0.15900
C601        C  0.42678026  0.77961874  0.93439931    -0.13700
C602        C  0.44974155  0.77883850  0.95780822    -0.28900
H603        H  0.42337391  0.80325240  0.93260302     0.15300
H604        H  0.45235973  0.75482541  0.96073403     0.15900
C605        C  0.22010069  0.56418789  0.80346400    -0.13700
C606        C  0.21891475  0.54765346  0.77437023    -0.28900
H607        H  0.19518990  0.55491051  0.81742902     0.15300
H608        H  0.24390349  0.55446389  0.76152169     0.15900
C609        C  0.33084734  0.76308687  0.77548194    -0.13700
C610        C  0.35518846  0.79792239  0.78163316    -0.28900
H611        H  0.31427444  0.75527969  0.75255462     0.15300
H612        H  0.37360230  0.80469785  0.80326080     0.15900
C613        C  0.24248001  0.68318581  0.93950414    -0.13700
C614        C  0.21400283  0.65472385  0.95368836    -0.28900
H615        H  0.24740798  0.71040549  0.94389065     0.15300
H616        H  0.20832006  0.62744758  0.94821437     0.15900
Zn617      Zn  0.82991451  0.19958480  0.37830480     1.49700
Zn618      Zn  0.83629756  0.15248141  0.31776794     1.49400
Zn619      Zn  0.88303352  0.16770161  0.38798020     1.49100
Zn620      Zn  0.79764487  0.11472971  0.38724442     1.49500
O621        O  0.83691120  0.15884055  0.36741984    -1.81400
O622        O  0.82863381  0.22528147  0.33558367    -0.72000
O623        O  0.88237884  0.15159654  0.30401882    -0.71900
O624        O  0.90983670  0.21567795  0.41361395    -0.71400
O625        O  0.83468083  0.19443203  0.29365123    -0.72100
O626        O  0.87170959  0.23684004  0.40649696    -0.71700
O627        O  0.91433827  0.16471147  0.35234760    -0.72200
O628        O  0.81651215  0.08697591  0.41478426    -0.71600
O629        O  0.78997811  0.10611535  0.30212374    -0.72400
O630        O  0.87529146  0.12739951  0.41977497    -0.71800
O631        O  0.76329299  0.08305192  0.35117678    -0.72300
O632        O  0.76642049  0.12548772  0.41669694    -0.72200
O633        O  0.78386311  0.18311795  0.40530420    -0.71900
C634        C  0.83139832  0.22079877  0.30424876     0.79800
C635        C  0.91060549  0.15705009  0.32104720     0.80300
C636        C  0.90109015  0.23987639  0.41865848     0.79300
C637        C  0.84822131  0.09653780  0.42645165     0.79700
C638        C  0.76307730  0.08251321  0.31909161     0.80800
C639        C  0.76265190  0.15308856  0.41986343     0.79900
C640        C  0.96929193  0.50240779  0.49600214     0.82900
N641        N  0.51543910  0.04854903  0.51342440    -0.75400
C642        C  0.54506927  0.04450595  0.50989794     0.85400
N643        N  0.54101144  0.01075888  0.50933967    -0.75300
C644        C  0.99388322  0.46368463  0.49445482     0.85500
N645        N  0.96462219  0.46850127  0.49493955    -0.77000
C646        C  0.83559298  0.01461724  0.47886294     0.82900
N647        N  0.86941470  0.01844840  0.47994455    -0.75400
C648        C  0.87093443  0.99971082  0.00398473     0.85400
N649        N  0.85047549  0.49094782  0.03832299    -0.75300
C650        C  0.81602892  0.48502081  0.03655422     0.85500
N651        N  0.80408970  0.99343670  0.00427740    -0.77000
C652        C  0.69889331  0.17328660  0.47120671     0.82900
N653        N  0.66904135  0.14027215  0.47691952    -0.75400
C654        C  0.64255348  0.13729160  0.49768233     0.85400
N655        N  0.62989899  0.14593478  0.03026265    -0.75300
C656        C  0.66024236  0.17883780  0.03369304     0.85500
N657        N  0.70176622  0.20316361  0.48603072    -0.77000
C658        C  0.51355946  0.33144327  0.02709666     0.82900
N659        N  0.48564819  0.31195337  0.50944968    -0.75400
C660        C  0.97282604  0.30705009  0.48199820     0.85400
N661        N  0.96936938  0.33714857  0.47905239    -0.75300
C662        C  0.49577432  0.38019301  0.51064324     0.85500
N663        N  0.50926671  0.36101931  0.02547430    -0.77000
Zn664      Zn  0.67312668  0.29301201  0.14397432     1.49700
Zn665      Zn  0.61883001  0.32586185  0.14121505     1.49400
Zn666      Zn  0.70532933  0.37889476  0.14309341     1.49100
Zn667      Zn  0.66520851  0.33164927  0.07696739     1.49500
O668        O  0.66566408  0.33235317  0.12649416    -1.81400
O669        O  0.63188066  0.26064612  0.17459475    -0.72000
O670        O  0.62634644  0.36926892  0.16711918    -0.71900
O671        O  0.74248940  0.37205590  0.17042170    -0.71400
O672        O  0.59344878  0.28201044  0.17202132    -0.72100
O673        O  0.72141614  0.31265159  0.17011233    -0.71700
O674        O  0.68617599  0.40582470  0.17072584    -0.72200
O675        O  0.70301046  0.37946411  0.05799226    -0.71600
O676        O  0.58536723  0.32055553  0.10149337    -0.72400
O677        O  0.73243622  0.41093139  0.10373776    -0.71800
O678        O  0.61690615  0.32137286  0.05709175    -0.72300
O679        O  0.67508420  0.29328192  0.05978700    -0.72200
O680        O  0.67351194  0.26182952  0.10576368    -0.71900
C681        C  0.60231944  0.25910534  0.18299860     0.79800
C682        C  0.65384235  0.39850946  0.17708853     0.80300
C683        C  0.74577242  0.34468303  0.17835472     0.79300
C684        C  0.72829605  0.40785632  0.07176525     0.79700
C685        C  0.58844067  0.31886827  0.06970693     0.80800
C686        C  0.67574846  0.26655313  0.07382885     0.79900
C687        C  0.53808696  0.00828959  0.25874759     0.82900
N688        N  0.54004646  0.04108622  0.25984768    -0.75400
C689        C  0.50912960  0.04305066  0.26127083     0.85400
N690        N  0.97664264  0.49937664  0.24822903    -0.75300
C691        C  0.97538988  0.46702899  0.24495338     0.84500
N692        N  0.00686250  0.46600835  0.24298468    -0.77000
C693        C  0.66485483  0.47954562  0.22861792     0.82900
N694        N  0.63092527  0.47552353  0.22745066    -0.75400
C695        C  0.62320168  0.49729561  0.24604871     0.85400
N696        N  0.66125274  0.02168125  0.26188627    -0.75300
C697        C  0.69042311  0.01749093  0.25587270     0.85500
N698        N  0.69108842  0.50581889  0.24828138    -0.77000
C699        C  0.98083788  0.15806693  0.26078649     0.82900
N700        N  0.98208654  0.12736844  0.26833394    -0.75400
C701        C  0.00902170  0.12261660  0.25599371     0.85400
N702        N  0.52841945  0.16597048  0.24271447    -0.75300
C703        C  0.52482883  0.19599116  0.24193780     0.85500
N704        N  0.00670005  0.18389242  0.24075473    -0.77000
C705        C  0.81841410  0.33145136  0.22733517     0.82900
N706        N  0.84895877  0.36477945  0.22669564    -0.75400
C707        C  0.87915212  0.37086519  0.24467202     0.85400
N708        N  0.87854447  0.34387085  0.26379265    -0.75300
C709        C  0.84851273  0.31049076  0.26427239     0.85500
N710        N  0.81853342  0.30428258  0.24587299    -0.77000
C711        C  0.00935517  0.06098892  0.26295969    -0.10600
C712        C  0.00907166  0.08918900  0.26151997    -0.12100
C713        C  0.55865739  0.49289805  0.24285135    -0.10600
C714        C  0.58760767  0.49379519  0.24407734    -0.12100
C715        C  0.91203734  0.40569405  0.24365341    -0.10600
C716        C  0.94073688  0.43387313  0.24388937    -0.12100
C717        C  0.57799660  0.22931477  0.20561036    -0.13700
C718        C  0.54829051  0.22693351  0.21976165    -0.28900
H719        H  0.58526034  0.20859894  0.21103332     0.15300
H720        H  0.54159006  0.24823136  0.21562235     0.15900
C721        C  0.67328811  0.45507790  0.20948022    -0.13700
C722        C  0.64692410  0.42407877  0.19598599    -0.28900
H723        H  0.70154615  0.46208697  0.20744691     0.15300
H724        H  0.61867748  0.41674883  0.19904308     0.15900
C725        C  0.77926356  0.35116849  0.19691605    -0.13700
C726        C  0.78474038  0.32437879  0.20871933    -0.28900
H727        H  0.80012221  0.37915654  0.20106722     0.15300
H728        H  0.76343376  0.29638096  0.20566780     0.15900
C729        C  0.53899991  0.33041461  0.05254740    -0.13700
C730        C  0.55895383  0.31468564  0.04643307    -0.28900
H731        H  0.54426107  0.34622557  0.07538289     0.15300
H732        H  0.55635125  0.30200726  0.02214070     0.15900
C733        C  0.66064266  0.20487695  0.05806420    -0.13700
C734        C  0.67897749  0.24064880  0.05199878    -0.28900
H735        H  0.64293297  0.19439331  0.07973326     0.15300
H736        H  0.69368903  0.25081599  0.02855550     0.15900
C737        C  0.78880219  0.45792028  0.05920332    -0.13700
C738        C  0.75386567  0.43749452  0.04991051    -0.28900
H739        H  0.79838171  0.45239182  0.08304035     0.15300
H740        H  0.74482594  0.44043665  0.02475585     0.15900
C741        C  0.58057793  0.07592599  0.50592967    -0.10600
C742        C  0.60964519  0.10310544  0.50219765    -0.12100
C743        C  0.50499401  0.44609924  0.50880599    -0.10600
C744        C  0.50159372  0.41632027  0.51036494    -0.12100
C745        C  0.93304118  0.99994567  0.00631770    -0.10600
C746        C  0.90561954  0.00168016  0.00381436    -0.12100
C747        C  0.95154264  0.16335989  0.27420706    -0.13700
C748        C  0.93920594  0.15221540  0.30553468    -0.28900
H749        H  0.94157215  0.17825790  0.25918744     0.15300
H750        H  0.95208443  0.14065154  0.32145266     0.15900
C751        C  0.85478602  0.07146536  0.44750606    -0.13700
C752        C  0.82797125  0.03938310  0.45837958    -0.28900
H753        H  0.88284291  0.07980286  0.45419204     0.15300
H754        H  0.79978187  0.03153054  0.45298423     0.15900
C755        C  0.92468095  0.27240946  0.43915333    -0.13700
C756        C  0.95183496  0.27537780  0.45954192    -0.28900
H757        H  0.91796956  0.29393865  0.43877252     0.15300
H758        H  0.95771317  0.25329915  0.46102626     0.15900
C759        C  0.72913499  0.05509082  0.30231832    -0.13700
C760        C  0.72651243  0.04323166  0.27059308    -0.28900
H761        H  0.70463286  0.04393136  0.31727387     0.15300
H762        H  0.75078177  0.05150907  0.25593865     0.15900
C763        C  0.83108942  0.24718078  0.27972662    -0.13700
C764        C  0.84800776  0.28260751  0.28721384    -0.28900
H765        H  0.81845391  0.23787174  0.25502983     0.15300
H766        H  0.86354630  0.29186450  0.31068974     0.15900
C767        C  0.73244888  0.14918768  0.44073399    -0.13700
C768        C  0.72852137  0.17739620  0.44932322    -0.28900
H769        H  0.71329351  0.12223117  0.44993534     0.15300
H770        H  0.74850297  0.20457234  0.44133542     0.15900
Zn771      Zn  0.82800518  0.20826898  0.89861925     1.49700
Zn772      Zn  0.82868611  0.17035092  0.82911058     1.49400
Zn773      Zn  0.87695381  0.17004097  0.89113472     1.49100
Zn774      Zn  0.79170027  0.12101902  0.89417653     1.49500
O775        O  0.83118040  0.16771733  0.87849728    -1.81400
O776        O  0.82443164  0.24058247  0.86122639    -0.72000
O777        O  0.87525582  0.18028417  0.80739866    -0.71900
O778        O  0.90647080  0.21176240  0.92179624    -0.71400
O779        O  0.81878643  0.20981090  0.81441248    -0.72100
O780        O  0.87375188  0.23906683  0.92756779    -0.71700
O781        O  0.90690401  0.17565746  0.85067213    -0.72200
O782        O  0.80976665  0.09158600  0.92085384    -0.71600
O783        O  0.78863614  0.12409189  0.80954212    -0.72400
O784        O  0.86952346  0.12560671  0.91585683    -0.71800
O785        O  0.76114398  0.09119530  0.85500264    -0.72300
O786        O  0.75822605  0.12870653  0.92312742    -0.72200
O787        O  0.78199157  0.18838246  0.92770404    -0.71900
C788        C  0.81949095  0.23638132  0.82927236     0.79800
C789        C  0.90318168  0.18004390  0.81927778     0.80300
C790        C  0.90224550  0.23680373  0.93401209     0.79300
C791        C  0.84184076  0.09718959  0.92650256     0.79700
C792        C  0.76336964  0.09563474  0.82312856     0.80800
C793        C  0.75706288  0.15595120  0.93423382     0.79900
C794        C  0.97198772  0.51604303  0.01924996     0.82900
N795        N  0.50038589  0.03359884  0.99438316    -0.75400
C796        C  0.53033331  0.02975790  0.99550171     0.85400
N797        N  0.52651228  0.99614429  0.99490766    -0.75300
C798        C  0.99864953  0.47919536  0.01757913     0.85500
N799        N  0.96858357  0.48264699  0.01817967    -0.77000
C800        C  0.83013877  0.01833849  0.98376458     0.82900
N801        N  0.86363078  0.02129449  0.98359505    -0.75400
C802        C  0.87618226  0.99599405  0.49955069     0.85400
N803        N  0.84985553  0.48224505  0.52103478    -0.75300
C804        C  0.81596476  0.47798746  0.52068458     0.85500
N805        N  0.80862080  0.98800519  0.49727409    -0.77000
C806        C  0.68870854  0.16357663  0.99153121     0.82900
N807        N  0.65794781  0.13074144  0.98802344    -0.75400
C808        C  0.62851990  0.12200385  0.00725511     0.85400
N809        N  0.64620524  0.16715644  0.51307523    -0.75300
C810        C  0.67577708  0.20011569  0.50733402     0.85500
N811        N  0.68948686  0.18768879  0.01408059    -0.77000
C812        C  0.51177422  0.33743601  0.53009619     0.82900
N813        N  0.49485229  0.30366185  0.00504888    -0.75400
C814        C  0.96435920  0.32286219  0.98487344     0.85400
N815        N  0.96583179  0.35516306  0.98879719    -0.75300
C816        C  0.48678840  0.36313961  0.00183921     0.85500
N817        N  0.51644376  0.37136095  0.53070942    -0.77000
Zn818      Zn  0.67398816  0.29559160  0.64140560     1.49700
Zn819      Zn  0.61879076  0.32653818  0.63587289     1.49400
Zn820      Zn  0.70620914  0.37989603  0.63279305     1.49100
Zn821      Zn  0.66241003  0.32817122  0.57047501     1.49500
O822        O  0.66529887  0.33255741  0.62006564    -1.81400
O823        O  0.63252419  0.26330184  0.67126636    -0.72000
O824        O  0.62802990  0.37079415  0.66134214    -0.71900
O825        O  0.74246023  0.37563139  0.66397343    -0.71400
O826        O  0.59267757  0.28269713  0.66693637    -0.72100
O827        O  0.72062098  0.31650853  0.67022567    -0.71700
O828        O  0.68759399  0.40842865  0.65718818    -0.72200
O829        O  0.70247180  0.37342364  0.54834938    -0.71600
O830        O  0.58487709  0.32182857  0.59678966    -0.72400
O831        O  0.73366446  0.40845608  0.59173331    -0.71800
O832        O  0.61447041  0.32143643  0.55136150    -0.72300
O833        O  0.66718373  0.28512110  0.55683073    -0.72200
O834        O  0.67472680  0.26291947  0.60581039    -0.71900
C835        C  0.60226316  0.26060009  0.67868235     0.79800
C836        C  0.65627961  0.40120157  0.66710316     0.80300
C837        C  0.74470729  0.34914252  0.67668423     0.79300
C838        C  0.72879877  0.40261206  0.56006638     0.79700
C839        C  0.58692620  0.32032632  0.56482040     0.80800
C840        C  0.67137102  0.26167686  0.57376646     0.79900
C841        C  0.55308992  0.01629104  0.74472263     0.82900
N842        N  0.55361728  0.04808635  0.74966470    -0.75400
C843        C  0.52196520  0.04800393  0.75455192     0.85400
N844        N  0.96945274  0.50961069  0.76636605    -0.75300
C845        C  0.96567227  0.47619054  0.76334542     0.84500
N846        N  0.99562952  0.47255625  0.76139101    -0.77000
C847        C  0.67683217  0.48607171  0.71635782     0.82900
N848        N  0.64387871  0.48350707  0.72055784    -0.75400
C849        C  0.64075445  0.50689487  0.74122310     0.85400
N850        N  0.67616087  0.03754681  0.75089783    -0.75300
C851        C  0.70815043  0.03789976  0.74853208     0.85500
N852        N  0.70654530  0.51226908  0.73266360    -0.77000
C853        C  0.97518037  0.16583562  0.77794392     0.82900
N854        N  0.97839409  0.13574031  0.77677763    -0.75400
C855        C  0.00071282  0.13349291  0.75426004     0.85400
N856        N  0.53140619  0.16616897  0.73811807    -0.75300
C857        C  0.52443249  0.19402392  0.73561314     0.85500
N858        N  0.99487033  0.19416036  0.75674577    -0.77000
C859        C  0.80914392  0.34173785  0.74314258     0.82900
N860        N  0.83970006  0.37497423  0.74229802    -0.75400
C861        C  0.86740738  0.38321638  0.76470523     0.85400
N862        N  0.86456192  0.35841358  0.78812397    -0.75300
C863        C  0.83449545  0.32513617  0.78909316     0.85500
N864        N  0.80689643  0.31674262  0.76635947    -0.77000
C865        C  0.00229161  0.07233760  0.75134288    -0.10600
C866        C  0.00261860  0.10080984  0.75232637    -0.12100
C867        C  0.57840312  0.50571545  0.74760404    -0.10600
C868        C  0.60644640  0.50537136  0.74474925    -0.12100
C869        C  0.90067754  0.41737289  0.76288193    -0.10600
C870        C  0.93000767  0.44464416  0.76262875    -0.12100
C871        C  0.57827695  0.23034314  0.70101325    -0.13700
C872        C  0.54681498  0.22539549  0.71338964    -0.28900
H873        H  0.58741775  0.21129216  0.70773821     0.15300
H874        H  0.53795501  0.24489568  0.70788062     0.15900
C875        C  0.68074616  0.45997097  0.69550604    -0.13700
C876        C  0.65209300  0.42842998  0.68586291    -0.28900
H877        H  0.70810418  0.46600755  0.68960058     0.15300
H878        H  0.62481384  0.42182753  0.69278130     0.15900
C879        C  0.77616493  0.35736445  0.69939338    -0.13700
C880        C  0.77829786  0.33238052  0.71916097    -0.28900
H881        H  0.79768305  0.38545206  0.70083636     0.15300
H882        H  0.75619846  0.30451470  0.71870738     0.15900
C883        C  0.53428364  0.32902624  0.55338800    -0.13700
C884        C  0.55764255  0.31886774  0.54245351    -0.28900
H885        H  0.53635590  0.33766749  0.57941081     0.15300
H886        H  0.55796528  0.31355571  0.51573986     0.15900
C887        C  0.67952369  0.23243628  0.52399374    -0.13700
C888        C  0.67051853  0.23098468  0.55644301    -0.28900
H889        H  0.69076731  0.25777384  0.50994030     0.15300
H890        H  0.66232661  0.20629538  0.57098762     0.15900
C891        C  0.78919500  0.45238923  0.54481930    -0.13700
C892        C  0.75427575  0.43015114  0.53618458    -0.28900
H893        H  0.79923552  0.44949056  0.56947767     0.15300
H894        H  0.74495928  0.43051147  0.51048403     0.15900
C895        C  0.56595328  0.06120262  0.99872538    -0.10600
C896        C  0.59516943  0.08829822  0.00227244    -0.12100
C897        C  0.48260573  0.42286293  0.99457493    -0.10600
C898        C  0.48393894  0.39536183  0.99863821    -0.12100
C899        C  0.93957808  0.99860347  0.50148749    -0.10600
C900        C  0.91140619  0.99904302  0.50009363    -0.12100
C901        C  0.95052181  0.16715054  0.80254254    -0.13700
C902        C  0.93127007  0.18373832  0.79586849    -0.28900
H903        H  0.94536060  0.15095360  0.82543124     0.15300
H904        H  0.93368580  0.19700485  0.77160093     0.15900
C905        C  0.84819082  0.07091455  0.94589149    -0.13700
C906        C  0.82203956  0.04254071  0.96267753    -0.28900
H907        H  0.87599541  0.07613116  0.94739760     0.15300
H908        H  0.79439343  0.03780817  0.96208964     0.15900
C909        C  0.93173792  0.26351456  0.95599581    -0.13700
C910        C  0.93439928  0.29519908  0.96394285    -0.28900
H911        H  0.95266154  0.25750322  0.96467096     0.15300
H912        H  0.91407713  0.30159538  0.95419858     0.15900
C913        C  0.73462257  0.06780657  0.80183874    -0.13700
C914        C  0.73936872  0.06327043  0.76926041    -0.28900
H915        H  0.70830881  0.05073310  0.81325969     0.15300
H916        H  0.76608694  0.07787092  0.75805113     0.15900
C917        C  0.81487661  0.26267355  0.80800205    -0.13700
C918        C  0.83326228  0.29834218  0.81408556    -0.28900
H919        H  0.79973259  0.25297800  0.78436239     0.15300
H920        H  0.85120152  0.30833941  0.83610873     0.15900
C921        C  0.72507328  0.14825594  0.95449829    -0.13700
C922        C  0.72133826  0.17339800  0.97117475    -0.28900
H923        H  0.70371074  0.12009117  0.95608349     0.15300
H924        H  0.74307723  0.20143883  0.97086818     0.15900
Zn925      Zn  0.83266672  0.70840501  0.38399571     1.49700
Zn926      Zn  0.84052847  0.67347408  0.31649841     1.49400
Zn927      Zn  0.88450221  0.67484074  0.38467856     1.49100
Zn928      Zn  0.79762422  0.62250571  0.37975193     1.49500
O929        O  0.83885141  0.66953807  0.36613719    -1.81400
O930        O  0.83750015  0.74359232  0.34772953    -0.72000
O931        O  0.88751379  0.67868836  0.29999667    -0.71900
O932        O  0.91077308  0.71812151  0.41667826    -0.71400
O933        O  0.83849641  0.71776119  0.29972705    -0.72100
O934        O  0.87129307  0.73791687  0.41806817    -0.71700
O935        O  0.91752602  0.67871846  0.34686458    -0.72200
O936        O  0.81441880  0.59324955  0.40873712    -0.71600
O937        O  0.79925954  0.62865598  0.29478262    -0.72400
O938        O  0.87427082  0.63027841  0.41106118    -0.71800
O939        O  0.76969810  0.59364629  0.33862982    -0.72300
O940        O  0.76135393  0.62938485  0.40591769    -0.72200
O941        O  0.78402021  0.68903262  0.40564445    -0.71900
C942        C  0.83899418  0.74373388  0.31573177     0.79800
C943        C  0.91494565  0.67974385  0.31477158     0.80300
C944        C  0.90092307  0.73984813  0.42777648     0.79300
C945        C  0.84614111  0.60054463  0.41870283     0.79700
C946        C  0.77326766  0.59959815  0.30689763     0.80800
C947        C  0.75906275  0.65716051  0.41320190     0.79900
C948        C  0.97120054  0.99466276  0.50410720     0.82900
N949        N  0.50904997  0.54517967  0.50009861    -0.75400
C950        C  0.54001155  0.54342671  0.49754991     0.85400
N951        N  0.53883195  0.51105632  0.50052750    -0.75300
C952        C  0.99679872  0.95691023  0.50887382     0.85500
N953        N  0.96718905  0.96103902  0.50592556    -0.77000
C954        C  0.83338025  0.52235245  0.47769002     0.82900
N955        N  0.86708986  0.52591013  0.47797554    -0.75400
C956        C  0.87623713  0.51571163  0.01779958     0.85400
N957        N  0.84510902  0.97553090  0.02474532    -0.75300
C958        C  0.81168245  0.97212416  0.02489999     0.85500
N959        N  0.80738821  0.50430807  0.01426906    -0.77000
C960        C  0.69205199  0.67515404  0.46084027     0.82900
N961        N  0.66193182  0.64203516  0.46475754    -0.75400
C962        C  0.63460325  0.63823123  0.48469550     0.85400
N963        N  0.60922148  0.64134986  0.00562204    -0.75300
C964        C  0.63846016  0.67507552  0.00830485     0.85500
N965        N  0.69445296  0.70430189  0.47669458    -0.77000
C966        C  0.50796560  0.83369378  0.02963590     0.82900
N967        N  0.48379244  0.81111988  0.50838591    -0.75400
C968        C  0.97333864  0.80053129  0.49357167     0.85400
N969        N  0.97068181  0.83113639  0.49260838    -0.75300
C970        C  0.49169877  0.87852825  0.51048560     0.85500
N971        N  0.50593492  0.86436606  0.02622145    -0.77000
Zn972      Zn  0.65929546  0.77979263  0.12804141     1.49700
Zn973      Zn  0.61777693  0.82492754  0.13920630     1.49400
Zn974      Zn  0.70497991  0.86537133  0.13288156     1.49100
Zn975      Zn  0.65577651  0.82804841  0.06902798     1.49500
O976        O  0.65917467  0.82455128  0.11783601    -1.81400
O977        O  0.61687330  0.74769292  0.15612943    -0.72000
O978        O  0.63592532  0.87099775  0.16732264    -0.71900
O979        O  0.73675264  0.84909695  0.15692505    -0.71400
O980        O  0.58978731  0.77931885  0.16853427    -0.72100
O981        O  0.70441554  0.78906590  0.15427699    -0.71700
O982        O  0.69610673  0.89670449  0.16419857    -0.72200
O983        O  0.69254393  0.87665541  0.05093595    -0.71600
O984        O  0.58174666  0.82299247  0.10306190    -0.72400
O985        O  0.73234483  0.89721939  0.09367330    -0.71800
O986        O  0.60660981  0.81859854  0.05568626    -0.72300
O987        O  0.66273105  0.79105662  0.04480639    -0.72200
O988        O  0.65606306  0.75231423  0.08600329    -0.71900
C989        C  0.59226187  0.75064102  0.17100013     0.79800
C990        C  0.66792761  0.89647911  0.17485206     0.80300
C991        C  0.73275784  0.81795740  0.16360100     0.79300
C992        C  0.72314998  0.89974129  0.06334678     0.79700
C993        C  0.58073462  0.81857461  0.07115629     0.80800
C994        C  0.65953189  0.76117624  0.05488978     0.79900
C995        C  0.52554093  0.49460716  0.24221051     0.82900
N996        N  0.52737911  0.52738504  0.24114181    -0.75400
C997        C  0.49650265  0.52947384  0.24153339     0.85400
N998        N  0.97637681  0.99582535  0.25842890    -0.75300
C999        C  0.97543318  0.96370651  0.25517928     0.84500
N1000       N  0.00689113  0.96267427  0.25472166    -0.77000
C1001       C  0.65256558  0.96510449  0.22397577     0.82900
N1002       N  0.62381025  0.96978591  0.22999933    -0.75400
C1003       C  0.62806956  0.99805263  0.24872222     0.85400
N1004       N  0.64930728  0.52284244  0.26626981    -0.75300
C1005       C  0.68335527  0.52739418  0.26729146     0.85500
N1006       N  0.68604617  0.98932270  0.23665119    -0.77000
C1007       C  0.98708814  0.66100168  0.27996371     0.82900
N1008       N  0.98896967  0.63013723  0.27893038    -0.75400
C1009       C  0.01259240  0.62773635  0.25805870     0.85400
N1010       N  0.51793983  0.65456370  0.22721277    -0.75300
C1011       C  0.51603641  0.68542942  0.22992348     0.85500
N1012       N  0.00917427  0.68967562  0.26012926    -0.77000
C1013       C  0.82108138  0.84185871  0.21229484     0.82900
N1014       N  0.85304782  0.87261970  0.21863497    -0.75400
C1015       C  0.87822888  0.87180629  0.23972145     0.85400
N1016       N  0.87130666  0.84032874  0.25488212    -0.75300
C1017       C  0.83950704  0.80937842  0.24860574     0.85500
N1018       N  0.81451135  0.81011909  0.22711209    -0.77000
C1019       C  0.01073613  0.56494725  0.25277871    -0.10600
C1020       C  0.01230654  0.59393056  0.25533206    -0.12100
C1021       C  0.57072762  0.00604948  0.25672027    -0.10600
C1022       C  0.59742038  0.00309407  0.25392852    -0.12100
C1023       C  0.91230193  0.90412861  0.24588326    -0.10600
C1024       C  0.94118106  0.93113032  0.25060091    -0.12100
C1025       C  0.56657491  0.71913773  0.19112710    -0.13700
C1026       C  0.53978193  0.71791238  0.20951669    -0.28900
H1027       H  0.57047195  0.69577486  0.19093804     0.15300
H1028       H  0.53600047  0.74130315  0.21048201     0.15900
C1029       C  0.64652984  0.93341920  0.20397704    -0.13700
C1030       C  0.67353511  0.92722635  0.19602231    -0.28900
H1031       H  0.61899951  0.91488282  0.19519575     0.15300
H1032       H  0.70118630  0.94617702  0.20418936     0.15900
C1033       C  0.76116410  0.81486560  0.18305708    -0.13700
C1034       C  0.79337815  0.84398371  0.19076613    -0.28900
H1035       H  0.75520449  0.78809747  0.19155019     0.15300
H1036       H  0.79944396  0.87060439  0.18167540     0.15900
C1037       C  0.53234076  0.83212162  0.05580812    -0.13700
C1038       C  0.54939341  0.81339912  0.05055727    -0.28900
H1039       H  0.54035131  0.85046323  0.07711947     0.15300
H1040       H  0.54388665  0.79795896  0.02742926     0.15900
C1041       C  0.63833016  0.70042733  0.03296948    -0.13700
C1042       C  0.65973142  0.73634851  0.02974352    -0.28900
H1043       H  0.61961737  0.68937138  0.05389347     0.15300
H1044       H  0.67614839  0.74776141  0.00737864     0.15900
C1045       C  0.78462004  0.94544894  0.04788360    -0.13700
C1046       C  0.74883238  0.92948935  0.04164895    -0.28900
H1047       H  0.79470095  0.93642323  0.06924564     0.15300
H1048       H  0.73860952  0.93622167  0.01886811     0.15900
C1049       C  0.57404230  0.57585838  0.49211366    -0.10600
C1050       C  0.60222202  0.60375241  0.48825653    -0.12100
C1051       C  0.50262212  0.94529801  0.51142744    -0.10600
C1052       C  0.49729700  0.91470402  0.51077678    -0.12100
C1053       C  0.94007892  0.51948439  0.01895617    -0.10600
C1054       C  0.91177955  0.51963472  0.01835213    -0.12100
C1055       C  0.96079976  0.66278780  0.30236703    -0.13700
C1056       C  0.94400531  0.68146748  0.29384763    -0.28900
H1057       H  0.95279295  0.64595104  0.32499751     0.15300
H1058       H  0.94919530  0.69529285  0.26955886     0.15900
C1059       C  0.85177061  0.57464774  0.43953897    -0.13700
C1060       C  0.82508639  0.54565184  0.45530736    -0.28900
H1061       H  0.87975877  0.58091614  0.44318181     0.15300
H1062       H  0.79717905  0.53996713  0.45302664     0.15900
C1063       C  0.92380121  0.76886352  0.45188323    -0.13700
C1064       C  0.95223025  0.77077309  0.46932541    -0.28900
H1065       H  0.91598781  0.78921316  0.45606806     0.15300
H1066       H  0.95928430  0.74967636  0.46666424     0.15900
C1067       C  0.74653244  0.57227932  0.28346818    -0.13700
C1068       C  0.71091937  0.55443200  0.29039105    -0.28900
H1069       H  0.75584451  0.56841308  0.25935060     0.15300
H1070       H  0.70148264  0.56107865  0.31305512     0.15900
C1071       C  0.84340168  0.77600905  0.29758149    -0.13700
C1072       C  0.83206374  0.77540971  0.26561571    -0.28900
H1073       H  0.85615526  0.80137443  0.31139679     0.15300
H1074       H  0.81642950  0.74989984  0.25238644     0.15900
C1075       C  0.72656513  0.65185929  0.43091242    -0.13700
C1076       C  0.72302338  0.67991570  0.44089009    -0.28900
H1077       H  0.70558708  0.62429845  0.43663539     0.15300
H1078       H  0.74449611  0.70746384  0.43590836     0.15900
Zn1079     Zn  0.81883962  0.70792196  0.89407552     1.49700
Zn1080     Zn  0.82773003  0.66814454  0.82987341     1.49400
Zn1081     Zn  0.87493926  0.67755654  0.89650824     1.49100
Zn1082     Zn  0.78984595  0.62243682  0.89647841     1.49500
O1083       O  0.82788105  0.66922235  0.87930827    -1.81400
O1084       O  0.81946677  0.73879407  0.85390643    -0.72000
O1085       O  0.87530436  0.67578307  0.81220151    -0.71900
O1086       O  0.89824853  0.72123556  0.92689477    -0.71400
O1087       O  0.82028018  0.70747095  0.80981321    -0.72100
O1088       O  0.85843442  0.74086436  0.92726245    -0.71700
O1089       O  0.90879234  0.68340447  0.85857521    -0.72200
O1090       O  0.80975336  0.59704424  0.92636303    -0.71600
O1091       O  0.78694431  0.62131141  0.81195298    -0.72400
O1092       O  0.86917545  0.63540823  0.92453492    -0.71800
O1093       O  0.76098568  0.58976692  0.85845580    -0.72300
O1094       O  0.75263032  0.62802696  0.92145093    -0.72200
O1095       O  0.76912432  0.68632449  0.91649480    -0.71900
C1096       C  0.81885796  0.73410899  0.82209207     0.79800
C1097       C  0.90479198  0.68148695  0.82652943     0.80300
C1098       C  0.88825754  0.74308317  0.93724552     0.79300
C1099       C  0.84231181  0.60587083  0.93457145     0.79700
C1100       C  0.76229974  0.59314109  0.82651131     0.80800
C1101       C  0.74663797  0.65404727  0.92597710     0.79900
C1102       C  0.96437891  0.99589576  0.01132752     0.82900
N1103       N  0.48399747  0.52034619  0.97944692    -0.75400
C1104       C  0.51567724  0.51975212  0.98165294     0.85400
N1105       N  0.51506047  0.48783484  0.98656715    -0.75300
C1106       C  0.99012877  0.95855706  0.01966817     0.85500
N1107       N  0.96047671  0.96234320  0.01446938    -0.77000
C1108       C  0.83335248  0.52980932  0.99412649     0.82900
N1109       N  0.86778061  0.53522865  0.99580904    -0.75400
C1110       C  0.87527320  0.50581879  0.49945741     0.85400
N1111       N  0.84937717  0.97005479  0.51847686    -0.75300
C1112       C  0.81553119  0.96582940  0.51727240     0.85500
N1113       N  0.80764727  0.49794752  0.49883953    -0.77000
C1114       C  0.66937605  0.66000485  0.96873578     0.82900
N1115       N  0.63981048  0.62619680  0.96595177    -0.75400
C1116       C  0.60957970  0.61707067  0.98412398     0.85400
N1117       N  0.63765730  0.66725010  0.50123196    -0.75300
C1118       C  0.66753493  0.70032739  0.49718750     0.85500
N1119       N  0.66835227  0.68439093  0.98962820    -0.77000
C1120       C  0.50836789  0.83635227  0.53020461     0.82900
N1121       N  0.49007981  0.80627467  0.00712960    -0.75400
C1122       C  0.96465923  0.80254239  0.00034282     0.85400
N1123       N  0.96227528  0.83318207  0.00214731    -0.75300
C1124       C  0.48632674  0.86787635  0.00051013     0.85500
N1125       N  0.51197626  0.86980389  0.53118116    -0.77000
Zn1126     Zn  0.67119580  0.79233254  0.63609662     1.49700
Zn1127     Zn  0.61682457  0.82503503  0.63442050     1.49400
Zn1128     Zn  0.70348605  0.87668280  0.62887297     1.49100
Zn1129     Zn  0.65743732  0.82544340  0.56726002     1.49500
O1130       O  0.66201809  0.82978814  0.61672653    -1.81400
O1131       O  0.63028362  0.75959465  0.66589688    -0.72000
O1132       O  0.62781642  0.87044948  0.65989950    -0.71900
O1133       O  0.73955604  0.87190589  0.65925112    -0.71400
O1134       O  0.59156217  0.78057583  0.66515428    -0.72100
O1135       O  0.71833438  0.81274013  0.66388647    -0.71700
O1136       O  0.68710444  0.90737685  0.65289099    -0.72200
O1137       O  0.69729780  0.86961182  0.54428168    -0.71600
O1138       O  0.58168701  0.82004372  0.59625204    -0.72400
O1139       O  0.73091545  0.90307101  0.58754299    -0.71800
O1140       O  0.60940124  0.81870472  0.54978012    -0.72300
O1141       O  0.66108368  0.78261536  0.55223758    -0.72200
O1142       O  0.67130449  0.76006620  0.59963963    -0.71900
C1143       C  0.60066133  0.75738735  0.67482199     0.79800
C1144       C  0.65652697  0.90101519  0.66409972     0.80300
C1145       C  0.74232058  0.84529995  0.67070774     0.79300
C1146       C  0.72517942  0.89745804  0.55594973     0.79700
C1147       C  0.58249433  0.81785943  0.56420540     0.80800
C1148       C  0.66636981  0.75920171  0.56779039     0.79900
C1149       C  0.54543056  0.50698770  0.75062093     0.82900
N1150       N  0.54661309  0.53940455  0.75218765    -0.75400
C1151       C  0.51533567  0.54054578  0.75452161     0.85400
N1152       N  0.96725249  0.00691688  0.74988560    -0.75300
C1153       C  0.96510101  0.97402899  0.74960752     0.84500
N1154       N  0.99596756  0.97185781  0.75031090    -0.77000
C1155       C  0.68073786  0.98881508  0.71092564     0.82900
N1156       N  0.64872276  0.98872713  0.71335073    -0.75400
C1157       C  0.64666878  0.01345743  0.73302442     0.85400
N1158       N  0.67033646  0.53233444  0.75818466    -0.75300
C1159       C  0.70327093  0.53509600  0.75386207     0.85500
N1160       N  0.71057491  0.01386209  0.72817786    -0.77000
C1161       C  0.98289424  0.67127815  0.79294480     0.82900
N1162       N  0.98560039  0.64084046  0.79371922    -0.75400
C1163       C  0.00825042  0.63730131  0.77253525     0.85400
N1164       N  0.52945018  0.66133551  0.73340239    -0.75300
C1165       C  0.52349571  0.68993239  0.73155775     0.85500
N1166       N  0.00339040  0.69860000  0.77097360    -0.77000
C1167       C  0.80953834  0.83758680  0.73282880     0.82900
N1168       N  0.84013223  0.87070240  0.73102987    -0.75400
C1169       C  0.86852044  0.87922848  0.75263249     0.85400
N1170       N  0.86623280  0.85488617  0.77634108    -0.75300
C1171       C  0.83606489  0.82172207  0.77815106     0.85500
N1172       N  0.80784659  0.81302715  0.75617695    -0.77000
C1173       C  0.00692477  0.57471092  0.77008191    -0.10600
C1174       C  0.00867316  0.60380659  0.77165134    -0.12100
C1175       C  0.58611730  0.01571501  0.73947938    -0.10600
C1176       C  0.61335417  0.01407682  0.73570946    -0.12100
C1177       C  0.90145842  0.91359091  0.75015532    -0.10600
C1178       C  0.93020126  0.94149728  0.74934354    -0.12100
C1179       C  0.57683352  0.72638435  0.69646384    -0.13700
C1180       C  0.54565304  0.72131390  0.70939781    -0.28900
H1181       H  0.58578436  0.70697374  0.70219371     0.15300
H1182       H  0.53700970  0.74113145  0.70477347     0.15900
C1183       C  0.68327408  0.96114916  0.69101007    -0.13700
C1184       C  0.65383583  0.92958404  0.68233903    -0.28900
H1185       H  0.71023308  0.96604307  0.68504594     0.15300
H1186       H  0.62699073  0.92405670  0.68960251     0.15900
C1187       C  0.77446462  0.85339968  0.69214464    -0.13700
C1188       C  0.77781865  0.82813686  0.71016784    -0.28900
H1189       H  0.79562618  0.88160586  0.69400627     0.15300
H1190       H  0.75606817  0.80011223  0.70950209     0.15900
C1191       C  0.53122930  0.82855246  0.55350831    -0.13700
C1192       C  0.55249588  0.81582528  0.54274574    -0.28900
H1193       H  0.53546564  0.83955502  0.57884085     0.15300
H1194       H  0.55091257  0.80824916  0.51641480     0.15900
C1195       C  0.67114225  0.73156351  0.51554814    -0.13700
C1196       C  0.66527006  0.72931603  0.54883671    -0.28900
H1197       H  0.68001740  0.75691232  0.50197233     0.15300
H1198       H  0.65943946  0.70472390  0.56257874     0.15900
C1199       C  0.78751956  0.93885169  0.53944387    -0.13700
C1200       C  0.75189861  0.92366107  0.53234422    -0.28900
H1201       H  0.79654361  0.93051157  0.56202023     0.15300
H1202       H  0.74250652  0.92918604  0.50843579     0.15900
C1203       C  0.54983461  0.55309797  0.98046672    -0.10600
C1204       C  0.57784665  0.58176850  0.98111035    -0.12100
C1205       C  0.48877000  0.93085002  0.99381595    -0.10600
C1206       C  0.48642609  0.90147259  0.99609367    -0.12100
C1207       C  0.93802180  0.50703812  0.49714994    -0.10600
C1208       C  0.91015052  0.50804816  0.49829929    -0.12100
C1209       C  0.95728357  0.67367683  0.81585265    -0.13700
C1210       C  0.93454353  0.68519441  0.80514715    -0.28900
H1211       H  0.95382027  0.66137707  0.84076645     0.15300
H1212       H  0.93538374  0.69383928  0.77903688     0.15900
C1213       C  0.85007904  0.58193727  0.95616063    -0.13700
C1214       C  0.82414578  0.55195609  0.97128949    -0.28900
H1215       H  0.87850522  0.59004798  0.96045348     0.15300
H1216       H  0.79573368  0.54433340  0.96799561     0.15900
C1217       C  0.91176674  0.77205806  0.96117546    -0.13700
C1218       C  0.94063107  0.77301319  0.97707423    -0.28900
H1219       H  0.90487342  0.79294244  0.96603810     0.15300
H1220       H  0.94669152  0.75138109  0.97318533     0.15900
C1221       C  0.73298397  0.56442364  0.80641238    -0.13700
C1222       C  0.73499694  0.56189352  0.77296684    -0.28900
H1223       H  0.70834377  0.54530546  0.81941680     0.15300
H1224       H  0.76015893  0.57892142  0.75976591     0.15900
C1225       C  0.81662444  0.75988766  0.79829183    -0.13700
C1226       C  0.83456153  0.79562998  0.80392123    -0.28900
H1227       H  0.80307242  0.74965713  0.77404475     0.15300
H1228       H  0.85116568  0.80613676  0.82670702     0.15900
C1229       C  0.71206421  0.64520964  0.94200663    -0.13700
C1230       C  0.70338571  0.67017700  0.95087314    -0.28900
H1231       H  0.69325331  0.61680866  0.94733264     0.15300
H1232       H  0.72273599  0.69875871  0.94724698     0.15900
loop_ 
_geom_bond_atom_site_label_1 
_geom_bond_atom_site_label_2 
_geom_bond_distance 
_geom_bond_site_symmetry_2 
_ccdc_geom_bond_type 
Zn1           O5   1.986       .  S
Zn1           O6   2.077       .  S
Zn1          O10   2.069       .  S
Zn1          O17   2.068       .  S
Zn2           O5   1.963       .  S
Zn2           O7   2.033       .  S
Zn2           O9   2.012       .  S
Zn2          O13   2.018       .  S
Zn3           O5   1.948       .  S
Zn3           O8   1.992       .  S
Zn3          O11   2.005       .  S
Zn3          O14   2.010       .  S
Zn4           O5   1.961       .  S
Zn4          O12   2.039       .  S
Zn4          O15   2.001       .  S
Zn4          O16   1.967       .  S
O6           C18   1.281       .  A
O7           C19   1.274       .  A
O8           C20   1.270       .  A
O9           C18   1.272       .  A
O10          C20   1.282       .  A
O11          C19   1.273       .  A
O12          C21   1.274       .  A
O13          C22   1.274       .  A
O14          C21   1.270       .  A
O15          C22   1.270       .  A
O16          C23   1.267       .  A
O17          C23   1.280       .  A
C18         C147   1.485       .  S
C19         C132   1.478       .  S
C20         C139   1.481       .  S
C21         C135   1.479       .  S
C22         C143   1.469       .  S
C23         C151   1.472       .  S
C24          N29   1.355       .  A
C24         N949   1.357       .  A
C24         C591   1.433       .  S
N25          C26   1.358       .  A
N25         C948   1.357   1_445  A
C26          N27   1.358   1_545  A
C26         C125   1.438       .  S
N27         C952   1.359   1_455  A
C28          N29   1.355       .  A
C28         N951   1.356       .  A
C28         C743   1.431       .  S
C30         C136   1.485       .  S
C30          N31   1.362       .  A
C30         N189   1.363       .  A
N31         C186   1.356       .  A
C32         N185   1.356       .  A
C32         N341   1.354   1_546  A
C32         C130   1.439       .  S
N33          C34   1.359       .  A
N33         C340   1.358   1_554  A
C34         C121   1.469       .  S
C34         N343   1.356   1_554  A
N35         C184   1.363   1_564  A
N35         C342   1.363       .  A
C36         C152   1.478       .  S
C36          N37   1.364       .  A
C36          N41   1.354       .  A
N37          C38   1.358       .  A
C38         N193   1.354       .  A
C38         C126   1.438       .  S
N39          C40   1.361       .  A
N39         C192   1.356       .  A
C40         C117   1.480       .  S
C40         N195   1.362   1_554  A
N41         C194   1.357       .  A
C42         C113   1.476       .  S
C42          N47   1.357       .  A
C42         N197   1.365   1_455  A
N43         C196   1.363   1_655  A
N43         C660   1.363       .  A
C44         C140   1.481       .  S
C44          N45   1.355       .  A
C44         N659   1.369       .  A
N45         C662   1.352       .  A
C46         N661   1.359       .  A
C46         N201   1.354   1_655  A
C46         C128   1.437       .  S
N47         C200   1.352   1_455  A
Zn48         O52   1.969       .  S
Zn48         O53   2.023       .  S
Zn48         O57   2.059       .  S
Zn48         O64   2.027       .  S
Zn49         O52   1.955       .  S
Zn49         O54   2.000       .  S
Zn49         O56   2.007       .  S
Zn49         O60   1.999       .  S
Zn50         O52   1.965       .  S
Zn50         O55   2.033       .  S
Zn50         O58   2.039       .  S
Zn50         O61   2.018       .  S
Zn51         O52   1.981       .  S
Zn51         O59   2.026       .  S
Zn51         O62   2.067       .  S
Zn51         O63   2.038       .  S
O53          C65   1.276       .  A
O54          C66   1.270       .  A
O55          C67   1.275       .  A
O56          C65   1.271       .  A
O57          C67   1.278       .  A
O58          C66   1.275       .  A
O59          C68   1.274       .  A
O60          C69   1.272       .  A
O61          C68   1.275       .  A
O62          C69   1.277       .  A
O63          C70   1.276       .  A
O64          C70   1.275       .  A
C65         C101   1.475       .  S
C66         C106   1.476       .  S
C67         C109   1.489       .  S
C68         C122   1.472       .  S
C69         C114   1.489       .  S
C70         C118   1.478       .  S
C71          N72   1.360   1_565  A
C71        N1000   1.358       .  A
C71         C405   1.440       .  S
N72          C73   1.359       .  A
C73         N998   1.356   1_445  A
C73         C711   1.438       .  S
N74          C75   1.357       .  A
N74         C997   1.357       .  A
C75          N76   1.361       .  A
C75         C100   1.442       .  S
N76         C995   1.361       .  A
C77         C105   1.480       .  S
C77          N78   1.361       .  A
C77          N82   1.359       .  A
N78          C79   1.357       .  A
C79         N388   1.358       .  A
C79          C98   1.442       .  S
N80          C81   1.359       .  A
N80         C387   1.356   1_545  A
C81         C144   1.467       .  S
C81         N390   1.355       .  A
N82         C389   1.358       .  A
C83         C131   1.470       .  S
C83          N84   1.356       .  A
C83          N88   1.363       .  A
N84          C85   1.353       .  A
C85         N702   1.353       .  A
C85          C96   1.434       .  S
N86          C87   1.356       .  A
N86         C701   1.354       .  A
C87         C102   1.474       .  S
C87         N704   1.362       .  A
N88         C703   1.363       .  A
C89         C110   1.493       .  S
C89          N90   1.364       .  A
C89          N94   1.366       .  A
N90          C91   1.359       .  A
C91          N92   1.355       .  A
C91          C99   1.442       .  S
N92          C93   1.357       .  A
C93         C148   1.486       .  S
C93          N94   1.366       .  A
C95         C689   1.435       .  S
C95          C96   1.205       .  T
C97         C379   1.442       .  S
C97          C98   1.210       .  T
C99         C100   1.210       .  T
C101        C102   1.342       .  D
C101        H103   1.087       .  S
C102        H104   1.087       .  S
C105        C106   1.344       .  D
C105        H107   1.087       .  S
C106        H108   1.087       .  S
C109        C110   1.351       .  D
C109        H111   1.087       .  S
C110        H112   1.086       .  S
C113        C114   1.348       .  D
C113        H115   1.087       .  S
C114        H116   1.086       .  S
C117        C118   1.345       .  D
C117        H119   1.086       .  S
C118        H120   1.087       .  S
C121        C122   1.340       .  D
C121        H123   1.087       .  S
C122        H124   1.087       .  S
C125        C126   1.207       .  T
C127        C644   1.437       .  S
C127        C128   1.207       .  T
C129        C486   1.439       .  S
C129        C130   1.208       .  T
C131        C132   1.342       .  D
C131        H133   1.087       .  S
C132        H134   1.087       .  S
C135        C136   1.347       .  D
C135        H137   1.087       .  S
C136        H138   1.087       .  S
C139        C140   1.338       .  D
C139        H141   1.087       .  S
C140        H142   1.088       .  S
C143        C144   1.339       .  D
C143        H145   1.087       .  S
C144        H146   1.086       .  S
C147        C148   1.342       .  D
C147        H149   1.087       .  S
C148        H150   1.087       .  S
C151        C152   1.337       .  D
C151        H153   1.087       .  S
C152        H154   1.086       .  S
Zn155       O159   1.951       .  S
Zn155       O160   2.006       .  S
Zn155       O164   1.996       .  S
Zn155       O171   2.011       .  S
Zn156       O159   1.979       .  S
Zn156       O161   2.035       .  S
Zn156       O163   2.042       .  S
Zn156       O167   2.048       .  S
Zn157       O159   1.966       .  S
Zn157       O162   2.049       .  S
Zn157       O165   2.020       .  S
Zn157       O168   2.009       .  S
Zn158       O159   1.967       .  S
Zn158       O166   2.053       .  S
Zn158       O169   2.022       .  S
Zn158       O170   2.035       .  S
O160        C172   1.273       .  A
O161        C173   1.275       .  A
O162        C174   1.275       .  A
O163        C172   1.274       .  A
O164        C174   1.270       .  A
O165        C173   1.275       .  A
O166        C175   1.277       .  A
O167        C176   1.277       .  A
O168        C175   1.273       .  A
O169        C176   1.274       .  A
O170        C177   1.277       .  A
O171        C177   1.271       .  A
C172        C301   1.481       .  S
C173        C286   1.478       .  S
C174        C293   1.476       .  S
C175        C289   1.480       .  S
C176        C297   1.478       .  S
C177        C305   1.479       .  S
C178       N1103   1.358       .  A
C178        N183   1.360       .  A
C178        C437   1.441       .  S
N179       C1102   1.355   1_545  A
N179        C180   1.356   1_655  A
C180        N181   1.358   1_545  A
C180        C279   1.434       .  S
N181       C1106   1.358   1_455  A
C182       N1105   1.358       .  A
C182        N183   1.360       .  A
C182        C897   1.439       .  S
C184        C290   1.486       .  S
C184        N185   1.363       .  A
C186        N495   1.356   1_545  A
C186        C284   1.440       .  S
N187        C494   1.354       .  A
N187        C188   1.357       .  A
C188        C275   1.472       .  S
C188        N497   1.363       .  A
N189        C496   1.363   1_545  A
C190        C306   1.478       .  S
C190        N191   1.356       .  A
C190        N195   1.364       .  A
N191        C192   1.354   1_556  A
C192        C280   1.434       .  S
N193        C194   1.355       .  A
C194        C271   1.464       .  S
C196        C267   1.478       .  S
C196        N201   1.355       .  A
N197        C814   1.369   1_554  A
C198        C294   1.485       .  S
C198        N813   1.361   1_556  A
C198        N199   1.360       .  A
N199        C816   1.354   1_556  A
C200        N815   1.352   1_554  A
C200        C282   1.432       .  S
Zn202       O206   1.945       .  S
Zn202       O207   1.971       .  S
Zn202       O211   2.010       .  S
Zn202       O218   1.990       .  S
Zn203       O206   1.976       .  S
Zn203       O208   2.049       .  S
Zn203       O210   2.063       .  S
Zn203       O214   2.057       .  S
Zn204       O206   1.954       .  S
Zn204       O209   2.030       .  S
Zn204       O212   2.016       .  S
Zn204       O215   2.025       .  S
Zn205       O206   1.951       .  S
Zn205       O213   2.010       .  S
Zn205       O216   2.000       .  S
Zn205       O217   2.007       .  S
O207        C219   1.268       .  A
O208        C220   1.280       .  A
O209        C221   1.276       .  A
O210        C219   1.279       .  A
O211        C221   1.270       .  A
O212        C220   1.274       .  A
O213        C222   1.271       .  A
O214        C223   1.279       .  A
O215        C222   1.275       .  A
O216        C223   1.271       .  A
O217        C224   1.270       .  A
O218        C224   1.270       .  A
C219        C255   1.472       .  S
C220        C260   1.482       .  S
C221        C263   1.479       .  S
C222        C276   1.474       .  S
C223        C268   1.477       .  S
C224        C272   1.464       .  S
C225        N226   1.358       .  A
C225       N1154   1.358   1_445  A
C225        C559   1.438       .  S
N226        C227   1.358       .  A
C227       N1152   1.358   1_455  A
C227        C865   1.437       .  S
N228       C1151   1.357       .  A
N228        C229   1.356       .  A
C229        N230   1.356       .  A
C229        C254   1.434       .  S
N230       C1149   1.357       .  A
C231        C259   1.481       .  S
C231        N232   1.357       .  A
C231        N236   1.366       .  A
N232        C233   1.354       .  A
C233        N542   1.356       .  A
C233        C252   1.437       .  S
N234        C541   1.356   1_545  A
N234        C235   1.361       .  A
C235        C298   1.481       .  S
C235        N544   1.362   1_545  A
N236        C543   1.364       .  A
C237        C285   1.473       .  S
C237        N238   1.358       .  A
C237        N242   1.363       .  A
N238        C239   1.355       .  A
C239        N856   1.353       .  A
C239        C250   1.435       .  S
N240        C855   1.355       .  A
N240        C241   1.363       .  A
C241        C256   1.481       .  S
C241        N858   1.359   1_455  A
N242        C857   1.362       .  A
C243        C264   1.476       .  S
C243        N244   1.357       .  A
C243        N248   1.365       .  A
N244        C245   1.352       .  A
C245        N246   1.353       .  A
C245        C253   1.433       .  S
N246        C247   1.357       .  A
C247        C302   1.473       .  S
C247        N248   1.364       .  A
C249        C843   1.435       .  S
C249        C250   1.206       .  T
C251        C533   1.438       .  S
C251        C252   1.207       .  T
C253        C254   1.205       .  T
C255        C256   1.341       .  D
C255        H257   1.087       .  S
C256        H258   1.086       .  S
C259        C260   1.342       .  D
C259        H261   1.087       .  S
C260        H262   1.087       .  S
C263        C264   1.341       .  D
C263        H265   1.086       .  S
C264        H266   1.087       .  S
C267        C268   1.340       .  D
C267        H269   1.087       .  S
C268        H270   1.087       .  S
C271        C272   1.340       .  D
C271        H273   1.087       .  S
C272        H274   1.087       .  S
C275        C276   1.341       .  D
C275        H277   1.088       .  S
C276        H278   1.088       .  S
C279        C280   1.205       .  T
C281        C798   1.432       .  S
C281        C282   1.204       .  T
C283        C332   1.440       .  S
C283        C284   1.208       .  T
C285        C286   1.343       .  D
C285        H287   1.087       .  S
C286        H288   1.086       .  S
C289        C290   1.347       .  D
C289        H291   1.087       .  S
C290        H292   1.086       .  S
C293        C294   1.346       .  D
C293        H295   1.086       .  S
C294        H296   1.086       .  S
C297        C298   1.345       .  D
C297        H299   1.087       .  S
C298        H300   1.086       .  S
C301        C302   1.344       .  D
C301        H303   1.086       .  S
C302        H304   1.087       .  S
C305        C306   1.342       .  D
C305        H307   1.086       .  S
C306        H308   1.086       .  S
Zn309       O313   1.981       .  S
Zn309       O314   2.048       .  S
Zn309       O318   2.053       .  S
Zn309       O325   2.063       .  S
Zn310       O313   1.964       .  S
Zn310       O315   2.016       .  S
Zn310       O317   1.999       .  S
Zn310       O321   2.027       .  S
Zn311       O313   1.955       .  S
Zn311       O316   2.024       .  S
Zn311       O319   2.017       .  S
Zn311       O322   1.999       .  S
Zn312       O313   1.960       .  S
Zn312       O320   2.031       .  S
Zn312       O323   2.017       .  S
Zn312       O324   1.985       .  S
O314        C326   1.278       .  A
O315        C327   1.272       .  A
O316        C328   1.273       .  A
O317        C326   1.271       .  A
O318        C328   1.279       .  A
O319        C327   1.274       .  A
O320        C329   1.274       .  A
O321        C330   1.273       .  A
O322        C329   1.270       .  A
O323        C330   1.272       .  A
O324        C331   1.269       .  A
O325        C331   1.279       .  A
C326        C455   1.472       .  S
C327        C440   1.471       .  S
C328        C447   1.486       .  S
C329        C443   1.472       .  S
C330        C451   1.476       .  S
C331        C459   1.476       .  S
C332        N641   1.360       .  A
C332        N337   1.355   1_545  A
N333        C640   1.358   1_455  A
N333        C334   1.359       .  A
C334        N335   1.358       .  A
C334        C433   1.439       .  S
N335        C644   1.358   1_455  A
C336        N643   1.359   1_565  A
C336        N337   1.355       .  A
C336       C1051   1.437       .  S
C338        C444   1.480       .  S
C338        N339   1.360       .  A
C338        N497   1.360       .  A
N339        C494   1.353       .  A
C340        N493   1.360       .  A
C340        C438   1.441       .  S
N341        C342   1.357       .  A
C342        C429   1.474       .  S
N343        C492   1.357       .  A
C344        C460   1.482       .  S
C344        N345   1.364       .  A
C344        N349   1.358       .  A
N345        C346   1.358       .  A
C346        N501   1.354       .  A
C346        C434   1.439       .  S
N347        C500   1.352       .  A
N347        C348   1.357       .  A
C348        C425   1.470       .  S
C348        N503   1.359   1_554  A
N349        C502   1.360       .  A
C350        C421   1.474       .  S
C350        N505   1.362   1_455  A
C350        N355   1.357       .  A
N351        C504   1.363   1_655  A
N351        C968   1.361       .  A
C352        C448   1.485       .  S
C352        N967   1.368       .  A
C352        N353   1.360       .  A
N353        C970   1.356       .  A
C354        N969   1.356       .  A
C354        N509   1.352   1_655  A
C354        C436   1.434       .  S
N355        C508   1.354   1_455  A
Zn356       O360   1.960       .  S
Zn356       O361   2.014       .  S
Zn356       O365   2.033       .  S
Zn356       O372   2.003       .  S
Zn357       O360   1.964       .  S
Zn357       O362   2.007       .  S
Zn357       O364   2.031       .  S
Zn357       O368   2.014       .  S
Zn358       O360   1.964       .  S
Zn358       O363   2.026       .  S
Zn358       O366   2.031       .  S
Zn358       O369   2.026       .  S
Zn359       O360   1.974       .  S
Zn359       O367   2.028       .  S
Zn359       O370   2.032       .  S
Zn359       O371   2.028       .  S
O361        C373   1.272       .  A
O362        C374   1.272       .  A
O363        C375   1.273       .  A
O364        C373   1.275       .  A
O365        C375   1.276       .  A
O366        C374   1.276       .  A
O367        C376   1.274       .  A
O368        C377   1.273       .  A
O369        C376   1.275       .  A
O370        C377   1.273       .  A
O371        C378   1.275       .  A
O372        C378   1.272       .  A
C373        C409   1.478       .  S
C374        C414   1.476       .  S
C375        C417   1.481       .  S
C376        C430   1.478       .  S
C377        C422   1.478       .  S
C378        C426   1.469       .  S
C379        N380   1.356       .  A
C379        N692   1.361       .  A
N380        C381   1.356       .  A
C381        N690   1.359   1_455  A
C381       C1019   1.439       .  S
N382        C689   1.357       .  A
N382        C383   1.356   1_545  A
C383        N384   1.358       .  A
C383        C408   1.438       .  S
N384        C687   1.359   1_565  A
C385        C413   1.475       .  S
C385        N386   1.363       .  A
C385        N390   1.356   1_565  A
N386        C387   1.359       .  A
C387        C406   1.440       .  S
N388        C389   1.361       .  A
C389        C452   1.475       .  S
C391        C439   1.470       .  S
C391        N392   1.357       .  A
C391        N396   1.361       .  A
N392        C393   1.355       .  A
C393       N1010   1.355       .  A
C393        C404   1.438       .  S
N394       C1009   1.359       .  A
N394        C395   1.362       .  A
C395        C410   1.479       .  S
C395       N1012   1.358       .  A
N396       C1011   1.359       .  A
C397        C418   1.482       .  S
C397        N398   1.362       .  A
C397        N402   1.359       .  A
N398        C399   1.359       .  A
C399        N400   1.357       .  A
C399        C407   1.438       .  S
N400        C401   1.357       .  A
C401        C456   1.478       .  S
C401        N402   1.361       .  A
C403        C997   1.438       .  S
C403        C404   1.207       .  T
C405        C406   1.208       .  T
C407        C408   1.207       .  T
C409        C410   1.343       .  D
C409        H411   1.087       .  S
C410        H412   1.087       .  S
C413        C414   1.342       .  D
C413        H415   1.087       .  S
C414        H416   1.087       .  S
C417        C418   1.346       .  D
C417        H419   1.086       .  S
C418        H420   1.086       .  S
C421        C422   1.344       .  D
C421        H423   1.087       .  S
C422        H424   1.087       .  S
C425        C426   1.340       .  D
C425        H427   1.086       .  S
C426        H428   1.088       .  S
C429        C430   1.342       .  D
C429        H431   1.087       .  S
C430        H432   1.087       .  S
C433        C434   1.208       .  T
C435        C952   1.435       .  S
C435        C436   1.205       .  T
C437        C438   1.209       .  T
C439        C440   1.341       .  D
C439        H441   1.087       .  S
C440        H442   1.087       .  S
C443        C444   1.345       .  D
C443        H445   1.087       .  S
C444        H446   1.087       .  S
C447        C448   1.344       .  D
C447        H449   1.087       .  S
C448        H450   1.087       .  S
C451        C452   1.342       .  D
C451        H453   1.087       .  S
C452        H454   1.086       .  S
C455        C456   1.341       .  D
C455        H457   1.087       .  S
C456        H458   1.087       .  S
C459        C460   1.341       .  D
C459        H461   1.087       .  S
C460        H462   1.086       .  S
Zn463       O467   1.938       .  S
Zn463       O468   1.982       .  S
Zn463       O472   1.983       .  S
Zn463       O479   1.995       .  S
Zn464       O467   1.975       .  S
Zn464       O469   2.017       .  S
Zn464       O471   2.034       .  S
Zn464       O475   2.050       .  S
Zn465       O467   1.964       .  S
Zn465       O470   2.059       .  S
Zn465       O473   2.014       .  S
Zn465       O476   2.008       .  S
Zn466       O467   1.950       .  S
Zn466       O474   2.037       .  S
Zn466       O477   2.023       .  S
Zn466       O478   2.026       .  S
O468        C480   1.270       .  A
O469        C481   1.274       .  A
O470        C482   1.276       .  A
O471        C480   1.273       .  A
O472        C482   1.267       .  A
O473        C481   1.276       .  A
O474        C483   1.277       .  A
O475        C484   1.277       .  A
O476        C483   1.272       .  A
O477        C484   1.274       .  A
O478        C485   1.276       .  A
O479        C485   1.270       .  A
C480        C609   1.470       .  S
C481        C594   1.469       .  S
C482        C601   1.476       .  S
C483        C597   1.477       .  S
C484        C605   1.480       .  S
C485        C613   1.472       .  S
C486        N795   1.359       .  A
C486        N491   1.357   1_545  A
N487        C794   1.356   1_455  A
N487        C488   1.357       .  A
C488        N489   1.355       .  A
C488        C587   1.429       .  S
N489        C798   1.355   1_455  A
C490        N797   1.358       .  A
C490        N491   1.356       .  A
C490       C1205   1.437       .  S
C492        C598   1.478       .  S
C492        N493   1.363       .  A
C494        C592   1.433       .  S
N495        C496   1.359       .  A
C496        C583   1.479       .  S
C498        C614   1.472       .  S
C498        N499   1.356       .  A
C498        N503   1.363       .  A
N499        C500   1.353   1_556  A
C500        C588   1.429       .  S
N501        C502   1.355       .  A
C502        C579   1.469       .  S
C504        C575   1.470       .  S
C504        N509   1.354       .  A
N505       C1122   1.362       .  A
C506        C602   1.484       .  S
C506       N1121   1.359   1_556  A
C506        N507   1.362       .  A
N507       C1124   1.357   1_556  A
C508       N1123   1.356       .  A
C508        C590   1.436       .  S
Zn510       O514   1.955       .  S
Zn510       O515   2.008       .  S
Zn510       O519   2.015       .  S
Zn510       O526   2.015       .  S
Zn511       O514   1.969       .  S
Zn511       O516   2.043       .  S
Zn511       O518   2.056       .  S
Zn511       O522   2.035       .  S
Zn512       O514   1.949       .  S
Zn512       O517   2.002       .  S
Zn512       O520   2.014       .  S
Zn512       O523   2.028       .  S
Zn513       O514   1.951       .  S
Zn513       O521   2.029       .  S
Zn513       O524   2.002       .  S
Zn513       O525   2.007       .  S
O515        C527   1.272       .  A
O516        C528   1.279       .  A
O517        C529   1.274       .  A
O518        C527   1.277       .  A
O519        C529   1.272       .  A
O520        C528   1.273       .  A
O521        C530   1.273       .  A
O522        C531   1.277       .  A
O523        C530   1.274       .  A
O524        C531   1.271       .  A
O525        C532   1.271       .  A
O526        C532   1.274       .  A
C527        C563   1.480       .  S
C528        C568   1.480       .  S
C529        C571   1.473       .  S
C530        C584   1.482       .  S
C531        C576   1.472       .  S
C532        C580   1.470       .  S
C533        N534   1.357       .  A
C533        N846   1.359   1_455  A
N534        C535   1.357       .  A
C535        N844   1.358   1_455  A
C535       C1173   1.436       .  S
N536        C843   1.356       .  A
N536        C537   1.355   1_545  A
C537        N538   1.354       .  A
C537        C562   1.429       .  S
N538        C841   1.354   1_565  A
C539        C567   1.481       .  S
C539        N540   1.357       .  A
C539        N544   1.365       .  A
N540        C541   1.355       .  A
C541        C560   1.438       .  S
N542        C543   1.361       .  A
C543        C606   1.484       .  S
C545        C593   1.467       .  S
C545        N546   1.356       .  A
C545        N550   1.360       .  A
N546        C547   1.354       .  A
C547       N1164   1.356       .  A
C547        C558   1.436       .  S
N548       C1163   1.355       .  A
N548        C549   1.362       .  A
C549        C564   1.486       .  S
C549       N1166   1.363       .  A
N550       C1165   1.358       .  A
C551        C572   1.469       .  S
C551        N552   1.356       .  A
C551        N556   1.361       .  A
N552        C553   1.353       .  A
C553        N554   1.353       .  A
C553        C561   1.429       .  S
N554        C555   1.356       .  A
C555        C610   1.467       .  S
C555        N556   1.360       .  A
C557       C1151   1.436       .  S
C557        C558   1.206       .  T
C559        C560   1.207   1_545  T
C561        C562   1.202       .  T
C563        C564   1.347       .  D
C563        H565   1.086       .  S
C564        H566   1.086       .  S
C567        C568   1.343       .  D
C567        H569   1.087       .  S
C568        H570   1.087       .  S
C571        C572   1.342       .  D
C571        H573   1.087       .  S
C572        H574   1.087       .  S
C575        C576   1.338       .  D
C575        H577   1.087       .  S
C576        H578   1.087       .  S
C579        C580   1.340       .  D
C579        H581   1.087       .  S
C580        H582   1.087       .  S
C583        C584   1.345       .  D
C583        H585   1.087       .  S
C584        H586   1.087       .  S
C587        C588   1.202       .  T
C589       C1106   1.437       .  S
C589        C590   1.206       .  T
C591        C592   1.204       .  T
C593        C594   1.339       .  D
C593        H595   1.087       .  S
C594        H596   1.087       .  S
C597        C598   1.342       .  D
C597        H599   1.087       .  S
C598        H600   1.087       .  S
C601        C602   1.343       .  D
C601        H603   1.086       .  S
C602        H604   1.086       .  S
C605        C606   1.346       .  D
C605        H607   1.087       .  S
C606        H608   1.086       .  S
C609        C610   1.342       .  D
C609        H611   1.086       .  S
C610        H612   1.087       .  S
C613        C614   1.339       .  D
C613        H615   1.086       .  S
C614        H616   1.087       .  S
Zn617       O621   1.956       .  S
Zn617       O622   2.014       .  S
Zn617       O626   2.020       .  S
Zn617       O633   2.038       .  S
Zn618       O621   1.986       .  S
Zn618       O623   2.060       .  S
Zn618       O625   2.042       .  S
Zn618       O629   2.066       .  S
Zn619       O621   1.961       .  S
Zn619       O624   2.049       .  S
Zn619       O627   2.006       .  S
Zn619       O630   2.006       .  S
Zn620       O621   1.953       .  S
Zn620       O628   2.022       .  S
Zn620       O631   2.000       .  S
Zn620       O632   2.003       .  S
O622        C634   1.275       .  A
O623        C635   1.280       .  A
O624        C636   1.277       .  A
O625        C634   1.276       .  A
O626        C636   1.273       .  A
O627        C635   1.273       .  A
O628        C637   1.275       .  A
O629        C638   1.278       .  A
O630        C637   1.271       .  A
O631        C638   1.271       .  A
O632        C639   1.271       .  A
O633        C639   1.277       .  A
C634        C763   1.478       .  S
C635        C748   1.476       .  S
C636        C755   1.483       .  S
C637        C751   1.473       .  S
C638        C759   1.480       .  S
C639        C767   1.477       .  S
C640        N645   1.357       .  A
C640       C1207   1.437       .  S
N641        C642   1.362       .  A
C642        N643   1.360       .  A
C642        C741   1.443       .  S
C644        N645   1.356       .  A
C646        C752   1.475       .  S
C646        N647   1.361       .  A
C646        N805   1.358   1_545  A
N647        C802   1.356   1_545  A
C648        N801   1.357   1_564  A
C648        N957   1.351       .  A
C648        C746   1.432   1_565  S
N649        C956   1.353       .  A
N649        C650   1.355       .  A
C650        C737   1.468       .  S
C650        N959   1.360       .  A
N651        C800   1.360   1_564  A
N651        C958   1.360       .  A
C652        C768   1.478       .  S
C652        N653   1.364       .  A
C652        N657   1.358       .  A
N653        C654   1.360       .  A
C654        N809   1.355       .  A
C654        C742   1.442       .  S
N655        C808   1.356       .  A
N655        C656   1.357       .  A
C656        C733   1.475       .  S
C656        N811   1.361       .  A
N657        C810   1.356       .  A
C658        C729   1.477       .  S
C658        N813   1.364       .  A
C658        N663   1.359       .  A
N659        C812   1.366       .  A
C660        C756   1.487       .  S
C660        N661   1.363       .  A
C662        N817   1.353       .  A
C662        C744   1.431       .  S
N663        C816   1.356       .  A
Zn664       O668   1.966       .  S
Zn664       O669   2.017       .  S
Zn664       O673   2.050       .  S
Zn664       O680   2.034       .  S
Zn665       O668   1.966       .  S
Zn665       O670   2.007       .  S
Zn665       O672   2.028       .  S
Zn665       O676   2.034       .  S
Zn666       O668   1.966       .  S
Zn666       O671   2.029       .  S
Zn666       O674   2.044       .  S
Zn666       O677   2.014       .  S
Zn667       O668   1.961       .  S
Zn667       O675   2.008       .  S
Zn667       O678   2.016       .  S
Zn667       O679   2.009       .  S
O669        C681   1.274       .  A
O670        C682   1.272       .  A
O671        C683   1.274       .  A
O672        C681   1.275       .  A
O673        C683   1.277       .  A
O674        C682   1.277       .  A
O675        C684   1.271       .  A
O676        C685   1.275       .  A
O677        C684   1.274       .  A
O678        C685   1.271       .  A
O679        C686   1.271       .  A
O680        C686   1.275       .  A
C681        C717   1.475       .  S
C682        C722   1.478       .  S
C683        C725   1.486       .  S
C684        C738   1.470       .  S
C685        C730   1.477       .  S
C686        C734   1.472       .  S
C687        N688   1.358       .  A
C687       C1021   1.439       .  S
N688        C689   1.358       .  A
N690        C691   1.360       .  A
C691        N692   1.362   1_655  A
C691        C716   1.446       .  S
C693        C721   1.482       .  S
C693        N694   1.363       .  A
C693        N698   1.359       .  A
N694        C695   1.358       .  A
C695       N1004   1.357       .  A
C695        C714   1.443       .  S
N696       C1003   1.357   1_545  A
N696        C697   1.362       .  A
C697        C760   1.483       .  S
C697       N1006   1.361   1_545  A
N698       C1005   1.360       .  A
C699        C747   1.480       .  S
C699        N700   1.362       .  A
C699        N704   1.360   1_655  A
N700        C701   1.358   1_655  A
C701        C712   1.437       .  S
N702        C703   1.360       .  A
C703        C718   1.481       .  S
C705        C726   1.487       .  S
C705        N706   1.365       .  A
C705        N710   1.362       .  A
N706        C707   1.361       .  A
C707        N708   1.356       .  A
C707        C715   1.445       .  S
N708        C709   1.357       .  A
C709        C764   1.475       .  S
C709        N710   1.361       .  A
C711        C712   1.207       .  T
C713        C995   1.443       .  S
C713        C714   1.210       .  T
C715        C716   1.212       .  T
C717        C718   1.347       .  D
C717        H719   1.087       .  S
C718        H720   1.086       .  S
C721        C722   1.344       .  D
C721        H723   1.087       .  S
C722        H724   1.087       .  S
C725        C726   1.347       .  D
C725        H727   1.087       .  S
C726        H728   1.086       .  S
C729        C730   1.343       .  D
C729        H731   1.087       .  S
C730        H732   1.087       .  S
C733        C734   1.341       .  D
C733        H735   1.087       .  S
C734        H736   1.087       .  S
C737        C738   1.339       .  D
C737        H739   1.088       .  S
C738        H740   1.087       .  S
C741        C742   1.210       .  T
C743        C744   1.203       .  T
C745       C1102   1.433       .  S
C745        C746   1.204   1_565  T
C747        C748   1.341       .  D
C747        H749   1.086       .  S
C748        H750   1.087       .  S
C751        C752   1.342       .  D
C751        H753   1.088       .  S
C752        H754   1.087       .  S
C755        C756   1.347       .  D
C755        H757   1.087       .  S
C756        H758   1.086       .  S
C759        C760   1.343       .  D
C759        H761   1.088       .  S
C760        H762   1.086       .  S
C763        C764   1.344       .  D
C763        H765   1.086       .  S
C764        H766   1.087       .  S
C767        C768   1.342       .  D
C767        H769   1.087       .  S
C768        H770   1.087       .  S
Zn771       O775   1.978       .  S
Zn771       O776   2.059       .  S
Zn771       O780   2.055       .  S
Zn771       O787   2.068       .  S
Zn772       O775   1.960       .  S
Zn772       O777   2.013       .  S
Zn772       O779   2.000       .  S
Zn772       O783   2.007       .  S
Zn773       O775   1.950       .  S
Zn773       O778   1.997       .  S
Zn773       O781   2.003       .  S
Zn773       O784   1.999       .  S
Zn774       O775   1.958       .  S
Zn774       O782   2.038       .  S
Zn774       O785   2.009       .  S
Zn774       O786   1.996       .  S
O776        C788   1.279       .  A
O777        C789   1.271       .  A
O778        C790   1.270       .  A
O779        C788   1.270       .  A
O780        C790   1.280       .  A
O781        C789   1.272       .  A
O782        C791   1.275       .  A
O783        C792   1.272       .  A
O784        C791   1.269       .  A
O785        C792   1.271       .  A
O786        C793   1.271       .  A
O787        C793   1.280       .  A
C788        C917   1.477       .  S
C789        C902   1.470       .  S
C790        C909   1.478       .  S
C791        C905   1.475       .  S
C792        C913   1.467       .  S
C793        C921   1.480       .  S
C794        N799   1.357       .  A
C794       C1053   1.433       .  S
N795        C796   1.360       .  A
C796        N797   1.358   1_545  A
C796        C895   1.441       .  S
C798        N799   1.356       .  A
C800        C906   1.480       .  S
C800        N801   1.363       .  A
C802       N1111   1.354       .  A
C802        C900   1.435       .  S
N803       C1110   1.354       .  A
N803        C804   1.357       .  A
C804        C891   1.474       .  S
C804       N1113   1.363       .  A
N805       C1112   1.359       .  A
C806        C922   1.484       .  S
C806        N807   1.364       .  A
C806        N811   1.359   1_556  A
N807        C808   1.359   1_556  A
C808        C896   1.441       .  S
N809        C810   1.358       .  A
C810        C887   1.470       .  S
C812        C883   1.478       .  S
C812        N817   1.357       .  A
C814        C910   1.479       .  S
C814        N815   1.356       .  A
C816        C898   1.439   1_554  S
Zn818       O822   1.962       .  S
Zn818       O823   2.003       .  S
Zn818       O827   2.048       .  S
Zn818       O834   2.007       .  S
Zn819       O822   1.974       .  S
Zn819       O824   2.007       .  S
Zn819       O826   2.037       .  S
Zn819       O830   2.033       .  S
Zn820       O822   1.960       .  S
Zn820       O825   2.028       .  S
Zn820       O828   2.014       .  S
Zn820       O831   2.021       .  S
Zn821       O822   1.971       .  S
Zn821       O829   2.029       .  S
Zn821       O832   2.038       .  S
Zn821       O833   2.024       .  S
O823        C835   1.272       .  A
O824        C836   1.272       .  A
O825        C837   1.273       .  A
O826        C835   1.275       .  A
O827        C837   1.276       .  A
O828        C836   1.275       .  A
O829        C838   1.274       .  A
O830        C839   1.275       .  A
O831        C838   1.274       .  A
O832        C839   1.274       .  A
O833        C840   1.276       .  A
O834        C840   1.273       .  A
C835        C871   1.474       .  S
C836        C876   1.471       .  S
C837        C879   1.486       .  S
C838        C892   1.478       .  S
C839        C884   1.487       .  S
C840        C888   1.470       .  S
C841        N842   1.360       .  A
C841       C1175   1.434       .  S
N842        C843   1.360       .  A
N844        C845   1.357       .  A
C845        N846   1.359       .  A
C845        C870   1.439       .  S
C847        C875   1.471       .  S
C847        N848   1.361       .  A
C847        N852   1.356       .  A
N848        C849   1.357       .  A
C849       N1158   1.354       .  A
C849        C868   1.435       .  S
N850       C1157   1.352       .  A
N850        C851   1.356       .  A
C851        C914   1.467       .  S
C851       N1160   1.357       .  A
N852       C1159   1.354       .  A
C853        C901   1.466       .  S
C853        N854   1.356       .  A
C853        N858   1.361       .  A
N854        C855   1.353   1_655  A
C855        C866   1.437       .  S
N856        C857   1.359       .  A
C857        C872   1.482       .  S
C859        C880   1.488       .  S
C859        N860   1.363       .  A
C859        N864   1.363       .  A
N860        C861   1.359       .  A
C861        N862   1.355       .  A
C861        C869   1.439       .  S
N862        C863   1.356       .  A
C863        C918   1.480       .  S
C863        N864   1.363       .  A
C865        C866   1.207       .  T
C867       C1149   1.435       .  S
C867        C868   1.205       .  T
C869        C870   1.208       .  T
C871        C872   1.346       .  D
C871        H873   1.087       .  S
C872        H874   1.086       .  S
C875        C876   1.341       .  D
C875        H877   1.087       .  S
C876        H878   1.087       .  S
C879        C880   1.348       .  D
C879        H881   1.086       .  S
C880        H882   1.086       .  S
C883        C884   1.345       .  D
C883        H885   1.087       .  S
C884        H886   1.087       .  S
C887        C888   1.340       .  D
C887        H889   1.087       .  S
C888        H890   1.087       .  S
C891        C892   1.342       .  D
C891        H893   1.087       .  S
C892        H894   1.086       .  S
C895        C896   1.209   1_556  T
C897        C898   1.208       .  T
C899        C948   1.435       .  S
C899        C900   1.205       .  T
C901        C902   1.340       .  D
C901        H903   1.087       .  S
C902        H904   1.087       .  S
C905        C906   1.343       .  D
C905        H907   1.087       .  S
C906        H908   1.087       .  S
C909        C910   1.339       .  D
C909        H911   1.087       .  S
C910        H912   1.088       .  S
C913        C914   1.341       .  D
C913        H915   1.088       .  S
C914        H916   1.086       .  S
C917        C918   1.341       .  D
C917        H919   1.087       .  S
C918        H920   1.087       .  S
C921        C922   1.343       .  D
C921        H923   1.087       .  S
C922        H924   1.086       .  S
Zn925       O929   1.945       .  S
Zn925       O930   1.996       .  S
Zn925       O934   1.999       .  S
Zn925       O941   2.009       .  S
Zn926       O929   1.969       .  S
Zn926       O931   2.016       .  S
Zn926       O933   2.030       .  S
Zn926       O937   2.027       .  S
Zn927       O929   1.963       .  S
Zn927       O932   2.053       .  S
Zn927       O935   2.021       .  S
Zn927       O938   2.004       .  S
Zn928       O929   1.970       .  S
Zn928       O936   2.044       .  S
Zn928       O939   2.024       .  S
Zn928       O940   2.014       .  S
O930        C942   1.269       .  A
O931        C943   1.273       .  A
O932        C944   1.276       .  A
O933        C942   1.274       .  A
O934        C944   1.270       .  A
O935        C943   1.275       .  A
O936        C945   1.277       .  A
O937        C946   1.274       .  A
O938        C945   1.272       .  A
O939        C946   1.275       .  A
O940        C947   1.272       .  A
O941        C947   1.274       .  A
C942       C1071   1.469       .  S
C943       C1056   1.471       .  S
C944       C1063   1.478       .  S
C945       C1059   1.476       .  S
C946       C1067   1.475       .  S
C947       C1075   1.473       .  S
C948        N953   1.356       .  A
N949        C950   1.359       .  A
C950        N951   1.357       .  A
C950       C1049   1.434       .  S
C952        N953   1.355       .  A
C954       C1060   1.483       .  S
C954        N955   1.361       .  A
C954       N1113   1.362       .  A
N955       C1110   1.355       .  A
C956       N1109   1.356   1_554  A
C956       C1054   1.432       .  S
N957        C958   1.353       .  A
C958       C1045   1.466       .  S
N959       C1108   1.359   1_554  A
C960       C1076   1.472       .  S
C960        N961   1.361       .  A
C960        N965   1.357       .  A
N961        C962   1.357       .  A
C962       N1117   1.354       .  A
C962       C1050   1.434       .  S
N963       C1116   1.356   1_554  A
N963        C964   1.356       .  A
C964       C1041   1.469       .  S
C964       N1119   1.358   1_554  A
N965       C1118   1.354       .  A
C966       C1037   1.473       .  S
C966       N1121   1.362       .  A
C966        N971   1.355       .  A
N967       C1120   1.365       .  A
C968       C1064   1.484       .  S
C968        N969   1.363       .  A
C970       N1125   1.352       .  A
C970       C1052   1.437       .  S
N971       C1124   1.354       .  A
Zn972       O976   1.944       .  S
Zn972       O977   1.983       .  S
Zn972       O981   2.019       .  S
Zn972       O988   2.012       .  S
Zn973       O976   1.974       .  S
Zn973       O978   2.052       .  S
Zn973       O980   2.054       .  S
Zn973       O984   2.044       .  S
Zn974       O976   1.943       .  S
Zn974       O979   2.015       .  S
Zn974       O982   2.008       .  S
Zn974       O985   2.010       .  S
Zn975       O976   1.943       .  S
Zn975       O983   2.004       .  S
Zn975       O986   1.980       .  S
Zn975       O987   2.003       .  S
O977        C989   1.270       .  A
O978        C990   1.279       .  A
O979        C991   1.274       .  A
O980        C989   1.279       .  A
O981        C991   1.272       .  A
O982        C990   1.272       .  A
O983        C992   1.270       .  A
O984        C993   1.277       .  A
O985        C992   1.274       .  A
O986        C993   1.268       .  A
O987        C994   1.269       .  A
O988        C994   1.272       .  A
C989       C1025   1.473       .  S
C990       C1030   1.480       .  S
C991       C1033   1.476       .  S
C992       C1046   1.470       .  S
C993       C1038   1.467       .  S
C994       C1042   1.467       .  S
C995        N996   1.358       .  A
N996        C997   1.357       .  A
N998        C999   1.356       .  A
C999       N1000   1.358   1_655  A
C999       C1024   1.435       .  S
C1001      C1029   1.481       .  S
C1001      N1002   1.357       .  A
C1001      N1006   1.365       .  A
N1002      C1003   1.355       .  A
C1003      C1022   1.439   1_565  S
N1004      C1005   1.359       .  A
C1005      C1068   1.476       .  S
C1007      C1055   1.472       .  S
C1007      N1008   1.357       .  A
C1007      N1012   1.359   1_655  A
N1008      C1009   1.356   1_655  A
C1009      C1020   1.439       .  S
N1010      C1011   1.362       .  A
C1011      C1026   1.481       .  S
C1013      C1034   1.476       .  S
C1013      N1014   1.359       .  A
C1013      N1018   1.362       .  A
N1014      C1015   1.356       .  A
C1015      N1016   1.354       .  A
C1015      C1023   1.435       .  S
N1016      C1017   1.358       .  A
C1017      C1072   1.472       .  S
C1017      N1018   1.358       .  A
C1019      C1020   1.208       .  T
C1021      C1022   1.208       .  T
C1023      C1024   1.206       .  T
C1025      C1026   1.342       .  D
C1025      H1027   1.087       .  S
C1026      H1028   1.086       .  S
C1029      C1030   1.342       .  D
C1029      H1031   1.087       .  S
C1030      H1032   1.087       .  S
C1033      C1034   1.344       .  D
C1033      H1035   1.086       .  S
C1034      H1036   1.087       .  S
C1037      C1038   1.337       .  D
C1037      H1039   1.087       .  S
C1038      H1040   1.087       .  S
C1041      C1042   1.340       .  D
C1041      H1043   1.087       .  S
C1042      H1044   1.087       .  S
C1045      C1046   1.339       .  D
C1045      H1047   1.088       .  S
C1046      H1048   1.088       .  S
C1049      C1050   1.205       .  T
C1051      C1052   1.207       .  T
C1053      C1054   1.204       .  T
C1055      C1056   1.342       .  D
C1055      H1057   1.087       .  S
C1056      H1058   1.087       .  S
C1059      C1060   1.345       .  D
C1059      H1061   1.087       .  S
C1060      H1062   1.086       .  S
C1063      C1064   1.345       .  D
C1063      H1065   1.087       .  S
C1064      H1066   1.086       .  S
C1067      C1068   1.343       .  D
C1067      H1069   1.087       .  S
C1068      H1070   1.087       .  S
C1071      C1072   1.340       .  D
C1071      H1073   1.088       .  S
C1072      H1074   1.086       .  S
C1075      C1076   1.342       .  D
C1075      H1077   1.087       .  S
C1076      H1078   1.087       .  S
Zn1079     O1083   1.968       .  S
Zn1079     O1084   2.039       .  S
Zn1079     O1088   2.034       .  S
Zn1079     O1095   2.051       .  S
Zn1080     O1083   1.958       .  S
Zn1080     O1085   2.018       .  S
Zn1080     O1087   2.002       .  S
Zn1080     O1091   2.008       .  S
Zn1081     O1083   1.955       .  S
Zn1081     O1086   2.018       .  S
Zn1081     O1089   2.026       .  S
Zn1081     O1092   2.005       .  S
Zn1082     O1083   1.959       .  S
Zn1082     O1090   2.027       .  S
Zn1082     O1093   1.998       .  S
Zn1082     O1094   1.994       .  S
O1084      C1096   1.276       .  A
O1085      C1097   1.272       .  A
O1086      C1098   1.275       .  A
O1087      C1096   1.270       .  A
O1088      C1098   1.276       .  A
O1089      C1097   1.275       .  A
O1090      C1099   1.274       .  A
O1091      C1100   1.273       .  A
O1092      C1099   1.271       .  A
O1093      C1100   1.270       .  A
O1094      C1101   1.270       .  A
O1095      C1101   1.278       .  A
C1096      C1225   1.472       .  S
C1097      C1210   1.476       .  S
C1098      C1217   1.479       .  S
C1099      C1213   1.474       .  S
C1100      C1221   1.467       .  S
C1101      C1229   1.476       .  S
C1102      N1107   1.358       .  A
N1103      C1104   1.358       .  A
C1104      N1105   1.357       .  A
C1104      C1203   1.439       .  S
C1106      N1107   1.357       .  A
C1108      C1214   1.478       .  S
C1108      N1109   1.361       .  A
C1110      C1208   1.437       .  S
N1111      C1112   1.356       .  A
C1112      C1199   1.468       .  S
C1114      C1230   1.477       .  S
C1114      N1115   1.364       .  A
C1114      N1119   1.356       .  A
N1115      C1116   1.360       .  A
C1116      C1204   1.439       .  S
N1117      C1118   1.357       .  A
C1118      C1195   1.464       .  S
C1120      C1191   1.475       .  S
C1120      N1125   1.356       .  A
C1122      C1218   1.480   1_554  S
C1122      N1123   1.361       .  A
C1124      C1206   1.436   1_554  S
Zn1126     O1130   1.962       .  S
Zn1126     O1131   1.994       .  S
Zn1126     O1135   2.043       .  S
Zn1126     O1142   2.010       .  S
Zn1127     O1130   1.969       .  S
Zn1127     O1132   2.029       .  S
Zn1127     O1134   2.043       .  S
Zn1127     O1138   2.038       .  S
Zn1128     O1130   1.952       .  S
Zn1128     O1133   2.014       .  S
Zn1128     O1136   2.017       .  S
Zn1128     O1139   2.004       .  S
Zn1129     O1130   1.966       .  S
Zn1129     O1137   2.017       .  S
Zn1129     O1140   2.020       .  S
Zn1129     O1141   2.005       .  S
O1131      C1143   1.271       .  A
O1132      C1144   1.275       .  A
O1133      C1145   1.271       .  A
O1134      C1143   1.277       .  A
O1135      C1145   1.275       .  A
O1136      C1144   1.275       .  A
O1137      C1146   1.272       .  A
O1138      C1147   1.276       .  A
O1139      C1146   1.273       .  A
O1140      C1147   1.272       .  A
O1141      C1148   1.273       .  A
O1142      C1148   1.272       .  A
C1143      C1179   1.473       .  S
C1144      C1184   1.478       .  S
C1145      C1187   1.481       .  S
C1146      C1200   1.468       .  S
C1147      C1192   1.482       .  S
C1148      C1196   1.468       .  S
C1149      N1150   1.358       .  A
N1150      C1151   1.357       .  A
N1152      C1153   1.357   1_545  A
C1153      N1154   1.358       .  A
C1153      C1178   1.439       .  S
C1155      C1183   1.477       .  S
C1155      N1156   1.362       .  A
C1155      N1160   1.360   1_565  A
N1156      C1157   1.358   1_565  A
C1157      C1176   1.433       .  S
N1158      C1159   1.358       .  A
C1159      C1222   1.464       .  S
C1161      C1209   1.473       .  S
C1161      N1162   1.357       .  A
C1161      N1166   1.363   1_655  A
N1162      C1163   1.354   1_655  A
C1163      C1174   1.436       .  S
N1164      C1165   1.362       .  A
C1165      C1180   1.478       .  S
C1167      C1188   1.483       .  S
C1167      N1168   1.363       .  A
C1167      N1172   1.360       .  A
N1168      C1169   1.359       .  A
C1169      N1170   1.355       .  A
C1169      C1177   1.439       .  S
N1170      C1171   1.356       .  A
C1171      C1226   1.475       .  S
C1171      N1172   1.361       .  A
C1173      C1174   1.206       .  T
C1175      C1176   1.205       .  T
C1177      C1178   1.208       .  T
C1179      C1180   1.342       .  D
C1179      H1181   1.087       .  S
C1180      H1182   1.086       .  S
C1183      C1184   1.345       .  D
C1183      H1185   1.087       .  S
C1184      H1186   1.087       .  S
C1187      C1188   1.345       .  D
C1187      H1189   1.087       .  S
C1188      H1190   1.086       .  S
C1191      C1192   1.342       .  D
C1191      H1193   1.087       .  S
C1192      H1194   1.087       .  S
C1195      C1196   1.339       .  D
C1195      H1197   1.087       .  S
C1196      H1198   1.088       .  S
C1199      C1200   1.341       .  D
C1199      H1201   1.087       .  S
C1200      H1202   1.086       .  S
C1203      C1204   1.208       .  T
C1205      C1206   1.206       .  T
C1207      C1208   1.207       .  T
C1209      C1210   1.341       .  D
C1209      H1211   1.087       .  S
C1210      H1212   1.087       .  S
C1213      C1214   1.343       .  D
C1213      H1215   1.087       .  S
C1214      H1216   1.087       .  S
C1217      C1218   1.348       .  D
C1217      H1219   1.086       .  S
C1218      H1220   1.086       .  S
C1221      C1222   1.338       .  D
C1221      H1223   1.088       .  S
C1222      H1224   1.086       .  S
C1225      C1226   1.340       .  D
C1225      H1227   1.087       .  S
C1226      H1228   1.087       .  S
C1229      C1230   1.340       .  D
C1229      H1231   1.087       .  S
C1230      H1232   1.086       .  S
