geometry optimzed in LAMMPS
_audit_creation_date              2020-12-01 
_audit_creation_method            'lammps2cif' 
_symmetry_space_group_name_H-M    'P1' 
_symmetry_Int_Tables_number       1 
_symmetry_cell_setting            triclinic 
loop_ 
_symmetry_equiv_pos_as_xyz 
  x,y,z 
_cell_length_a                    31.10110652 
_cell_length_b                    31.605342604944944 
_cell_length_c                    30.100403534326066 
_cell_angle_alpha                 89.72128442047739 
_cell_angle_beta                  89.32652069207575 
_cell_angle_gamma                 89.99331777651402 
loop_ 
_atom_site_label 
_atom_site_type_symbol 
_atom_site_fract_x 
_atom_site_fract_y 
_atom_site_fract_z 
_atom_site_charge 
C1          C  0.24888337  0.22970783  0.85984016     0.06100
C2          C  0.25117007  0.23436435  0.81346405    -0.10000
C3          C  0.22418315  0.26326926  0.79186668     0.03600
C4          C  0.19499037  0.28748936  0.81680444    -0.08500
C5          C  0.19270000  0.28283076  0.86311458     0.06100
C6          C  0.21960838  0.25394895  0.88459306    -0.08000
H7          H  0.27378959  0.21553705  0.79427994     0.11700
H8          H  0.17404910  0.30984729  0.80021848     0.09300
H9          H  0.21770446  0.25033700  0.92037308     0.09100
Zn10       Zn  0.47182128  0.04892890  0.91404451     1.49700
Zn11       Zn  0.01402139  0.49354939  0.98520196     1.49400
Zn12       Zn  0.48905182  0.50464303  0.98761210     1.49100
Zn13       Zn  0.53325550  0.45023593  0.91022761     1.49500
O14         O  0.53988167  0.49924646  0.94913802    -1.81100
O15         O  0.09493688  0.08638387  0.92253116    -0.71700
O16         O  0.99478018  0.49185759  0.04935992    -0.71600
O17         O  0.37709687  0.05833133  0.96906262    -0.71100
O18         O  0.12763150  0.04878101  0.97501900    -0.71800
O19         O  0.42035680  0.08737438  0.91784225    -0.71400
O20         O  0.50455411  0.50496607  0.05249730    -0.71900
O21         O  0.48064575  0.41566536  0.92712485    -0.71300
O22         O  0.04993621  0.44211873  0.97071967    -0.72100
O23         O  0.45021099  0.45467097  0.98022695    -0.71500
O24         O  0.01145897  0.41053685  0.91854415    -0.72000
O25         O  0.52890365  0.46812727  0.84575474    -0.71900
O26         O  0.47655896  0.03191212  0.84931766    -0.71600
C27         C  0.12454647  0.08183480  0.95102930     0.80100
C28         C  0.53877847  0.49463961  0.07258456     0.80600
C29         C  0.38534774  0.08680999  0.94010546     0.79600
C30         C  0.45093437  0.42205557  0.95574445     0.80000
C31         C  0.04451253  0.41252444  0.94285963     0.81100
C32         C  0.53761883  0.50266245  0.82566190     0.80200
C33         C  0.24904135  0.23307625  0.03156823     0.06100
C34         C  0.24366280  0.23741185  0.07771413    -0.10000
C35         C  0.26711763  0.26806404  0.10074213     0.03600
C36         C  0.29591710  0.29434431  0.07740097    -0.08500
C37         C  0.30135134  0.28996744  0.03131975     0.06100
C38         C  0.27793944  0.25933580  0.00845919    -0.08000
H39         H  0.22137233  0.21698510  0.09561951     0.11700
H40         H  0.31420715  0.31799736  0.09506789     0.09300
H41         H  0.28231666  0.25586631  0.97286525     0.09100
C42         C  0.99939447  0.48775931  0.35814638     0.06100
C43         C  0.99466516  0.48482794  0.31200966    -0.10000
C44         C  0.47574381  0.01924202  0.29732060     0.03600
C45         C  0.45059773  0.04792471  0.32165185    -0.08500
C46         C  0.45726031  0.05310449  0.36730638     0.06100
C47         C  0.97254683  0.51470647  0.38279647    -0.08000
H48         H  0.01570110  0.46427688  0.29287575     0.11700
H49         H  0.42611371  0.06639793  0.30504627     0.09300
H50         H  0.49443391  0.03375667  0.42396931     0.09100
Zn51       Zn  0.18661897  0.28618779  0.48204361     1.49700
Zn52       Zn  0.28829957  0.27727663  0.48639568     1.49400
Zn53       Zn  0.23649739  0.23239047  0.40815143     1.49100
Zn54       Zn  0.24636788  0.33273270  0.40851551     1.49500
O55         O  0.23947349  0.28229365  0.44622715    -1.81100
O56         O  0.19930390  0.29026622  0.54779370    -0.71700
O57         O  0.32594420  0.22716173  0.47049411    -0.71600
O58         O  0.18534714  0.19538681  0.42399287    -0.71100
O59         O  0.26844332  0.27221531  0.55041433    -0.71800
O60         O  0.15151190  0.23290734  0.47611075    -0.71400
O61         O  0.28919887  0.19673655  0.41622854    -0.71900
O62         O  0.25487834  0.31654487  0.34352833    -0.71300
O63         O  0.32464447  0.32988529  0.48310339    -0.72100
O64         O  0.23640639  0.24843764  0.34300140    -0.71500
O65         O  0.29614856  0.36934959  0.42944685    -0.72000
O66         O  0.19188700  0.36751214  0.41106627    -0.71900
O67         O  0.15029950  0.33560069  0.46193090    -0.71600
C68         C  0.23282141  0.28075569  0.56959602     0.80100
C69         C  0.32159112  0.19834101  0.44150262     0.80600
C70         C  0.15511564  0.19984155  0.45245362     0.79600
C71         C  0.24710235  0.28237365  0.32275690     0.80000
C72         C  0.32390241  0.36348476  0.45970951     0.81100
C73         C  0.15683442  0.36462028  0.43314502     0.80200
C74         C  0.46889336  0.49834958  0.53897125     0.06100
C75         C  0.47704262  0.49247608  0.58439114    -0.10000
C76         C  0.48424695  0.98679931  0.60735925     0.03600
C77         C  0.04380536  0.03540706  0.57626986    -0.08500
C78         C  0.03616053  0.04101880  0.53078903     0.06100
C79         C  0.49059154  0.53023318  0.51523225    -0.08000
H80         H  0.46028277  0.46786217  0.60286325     0.11700
H81         H  0.06610623  0.05610151  0.59307883     0.09300
H82         H  0.48453317  0.53475016  0.48008113     0.09100
C83         C  0.12539913  0.16566700  0.46009830    -0.15500
C84         C  0.10244261  0.13662714  0.47129353     0.08600
C85         C  0.07769893  0.10276943  0.48880526     0.10400
C86         C  0.05810547  0.07430685  0.50666942    -0.16300
C87         C  0.35500067  0.39588876  0.46900016    -0.15500
C88         C  0.38135703  0.42123074  0.48125896     0.08600
C89         C  0.41213669  0.44907532  0.49935634     0.10400
C90         C  0.43814103  0.47177922  0.51683264    -0.16300
C91         C  0.12298556  0.39413824  0.42385184    -0.15500
C92         C  0.09428157  0.41733938  0.41260167     0.08600
C93         C  0.06077738  0.44287398  0.39605874     0.10400
C94         C  0.03248316  0.46367698  0.37977433    -0.16300
C95         C  0.43159189  0.08311829  0.39176095    -0.15500
C96         C  0.40885321  0.10907026  0.40948157     0.08600
C97         C  0.38044763  0.14017680  0.42608115     0.10400
C98         C  0.35447227  0.16694216  0.43589338    -0.16300
C99         C  0.26199565  0.27238537  0.14831717    -0.15500
C100        C  0.25821822  0.27596094  0.18816180     0.08600
C101        C  0.25412713  0.27962075  0.23496050     0.10400
C102        C  0.25081592  0.28174211  0.27496799    -0.16300
C103        C  0.41759843  0.39120068  0.96202391    -0.15500
C104        C  0.38963329  0.36661425  0.97253127     0.08600
C105        C  0.35773039  0.33920455  0.98983538     0.10400
C106        C  0.33150669  0.31656598  0.00769291    -0.16300
C107        C  0.15433179  0.11571353  0.95837132    -0.15500
C108        C  0.17800717  0.14356084  0.97025413     0.08600
C109        C  0.20397578  0.17521383  0.98917889     0.10400
C110        C  0.22490498  0.20167517  0.00791091    -0.16300
C111        C  0.53424734  0.50440361  0.77801448    -0.15500
C112        C  0.46965086  0.99581711  0.74140552     0.08600
C113        C  0.98021241  0.48255640  0.68838094     0.10400
C114        C  0.47770247  0.99039893  0.65476098    -0.16300
C115        C  0.53783038  0.49208548  0.12029599    -0.15500
C116        C  0.04249109  0.99686459  0.15664712     0.08600
C117        C  0.46541863  0.01173437  0.21039035     0.10400
C118        C  0.46962874  0.01482348  0.25009238    -0.16300
C119        C  0.22617370  0.26799483  0.74414924    -0.15500
C120        C  0.22741059  0.27198693  0.70421660     0.08600
C121        C  0.22882030  0.27621895  0.65737531     0.09800
C122        C  0.23034343  0.27898505  0.61734473    -0.16300
C123        C  0.27648943  0.19999194  0.88206899    -0.15500
C124        C  0.29994977  0.17488198  0.89986550     0.08600
C125        C  0.32837235  0.14489711  0.91831776     0.10400
C126        C  0.35377100  0.11866827  0.93072249    -0.16300
C127        C  0.16254504  0.30770678  0.88844750    -0.15500
C128        C  0.13653565  0.32953069  0.90746779     0.08600
C129        C  0.10508869  0.35667560  0.92575079     0.10400
C130        C  0.07753083  0.38142059  0.93667988    -0.16300
C131        C  0.31013336  0.71271430  0.86530396     0.06100
C132        C  0.30557483  0.70784182  0.81928251    -0.10000
C133        C  0.27604780  0.73287000  0.79609381     0.03600
C134        C  0.25109364  0.76266988  0.81911950    -0.08500
C135        C  0.25567317  0.76747367  0.86510832     0.06100
C136        C  0.28513154  0.74247688  0.88819464    -0.08000
H137        H  0.32515541  0.68492224  0.80155995     0.11700
H138        H  0.22837456  0.78225010  0.80127353     0.09300
H139        H  0.28879706  0.74637265  0.92373700     0.09100
Zn140      Zn  0.54645935  0.55007442  0.91216163     1.49700
Zn141      Zn  0.09237243  0.99583790  0.98203788     1.49400
Zn142      Zn  0.41130900  0.00739236  0.98977656     1.49100
Zn143      Zn  0.45598597  0.94964201  0.91537712     1.49500
O144        O  0.46292917  0.99959126  0.95269743    -1.81100
O145        O  0.02688588  0.58167466  0.92279631    -0.71700
O146        O  0.07728701  0.99192938  0.04740805    -0.71600
O147        O  0.45450032  0.55645800  0.97222998    -0.71100
O148        O  0.05248376  0.54422547  0.97947438    -0.71800
O149        O  0.49460262  0.58741031  0.91962105    -0.71400
O150        O  0.42669358  0.01354257  0.05479768    -0.71900
O151        O  0.40352063  0.91591276  0.93372847    -0.71300
O152        O  0.12900993  0.94564023  0.96495326    -0.72100
O153        O  0.37329300  0.95571644  0.98637311    -0.71500
O154        O  0.08842138  0.91270374  0.91536245    -0.72000
O155        O  0.45375020  0.96512300  0.85018409    -0.71900
O156        O  0.54819323  0.53596012  0.84653286    -0.71600
C157        C  0.05391900  0.57622914  0.95379757     0.80100
C158        C  0.46048815  0.00353940  0.07594111     0.80600
C159        C  0.46087840  0.58576992  0.94383237     0.79600
C160        C  0.37441751  0.92228390  0.96299985     0.80000
C161        C  0.12255286  0.91548808  0.93798986     0.81100
C162        C  0.46568198  0.99826313  0.82924265     0.80200
C163        C  0.19855139  0.70812880  0.03651020     0.06100
C164        C  0.20437200  0.70168739  0.08226551    -0.10000
C165        C  0.23258076  0.72767359  0.10587637     0.03600
C166        C  0.25493229  0.76005080  0.08354878    -0.08500
C167        C  0.24915870  0.76655391  0.03788856     0.06100
C168        C  0.22099779  0.74057161  0.01439047    -0.08000
H169        H  0.18686297  0.67672224  0.09944442     0.11700
H170        H  0.27666023  0.78027884  0.10171244     0.09300
H171        H  0.21646159  0.74566080  0.97909703     0.09100
C172        C  0.04675129  0.94841849  0.35973284     0.06100
C173        C  0.05393446  0.95420936  0.31401101    -0.10000
C174        C  0.52576714  0.48254273  0.29487076     0.03600
C175        C  0.49578247  0.50776840  0.31758689    -0.08500
C176        C  0.49192707  0.50505190  0.36397970     0.06100
C177        C  0.01561463  0.97267630  0.38190012    -0.08000
H178        H  0.07784437  0.93521537  0.29678286     0.11700
H179        H  0.47546351  0.52939173  0.29922500     0.09300
H180        H  0.51505152  0.47486618  0.42361570     0.09100
Zn181      Zn  0.20979748  0.72583598  0.48992085     1.49700
Zn182      Zn  0.31151071  0.71562618  0.48729644     1.49400
Zn183      Zn  0.25448711  0.66892019  0.41429342     1.49100
Zn184      Zn  0.26518697  0.76867122  0.41078662     1.49500
O185        O  0.26014753  0.71974592  0.45062464    -1.81100
O186        O  0.22710691  0.73060876  0.55453563    -0.71700
O187        O  0.34818399  0.66553542  0.46941327    -0.71600
O188        O  0.20371412  0.63357090  0.43455870    -0.71100
O189        O  0.29623211  0.71222427  0.55270329    -0.71800
O190        O  0.17263748  0.67381676  0.48632430    -0.71400
O191        O  0.30794410  0.63342294  0.41891933    -0.71900
O192        O  0.26713963  0.75139314  0.34596880    -0.71300
O193        O  0.34713907  0.76842679  0.48054086    -0.72100
O194        O  0.24818836  0.68350680  0.34902625    -0.71500
O195        O  0.31616679  0.80542068  0.42649091    -0.72000
O196        O  0.21242646  0.80471741  0.41677985    -0.71900
O197        O  0.17348611  0.77622798  0.47183512    -0.71600
C198        C  0.26207378  0.72171944  0.57412515     0.80100
C199        C  0.34215609  0.63608070  0.44146953     0.80600
C200        C  0.17432482  0.64008299  0.46349853     0.79600
C201        C  0.25657175  0.71705589  0.32699829     0.80000
C202        C  0.34503251  0.80107263  0.45581414     0.81100
C203        C  0.17908790  0.80405843  0.44158584     0.80200
C204        C  0.46824497  0.95280252  0.53715943     0.06100
C205        C  0.46101038  0.95697349  0.58303991    -0.10000
C206        C  0.50674880  0.51848639  0.60596543     0.03600
C207        C  0.02122152  0.50336941  0.58002090    -0.08500
C208        C  0.02796616  0.50077009  0.53398952     0.06100
C209        C  0.49875945  0.97852014  0.51558085    -0.08000
H210        H  0.43758732  0.93688882  0.59979766     0.11700
H211        H  0.03911893  0.52614396  0.59927326     0.09300
H212        H  0.50457635  0.97508380  0.48021801     0.09100
C213        C  0.14239323  0.60812380  0.47156805    -0.15500
C214        C  0.11567135  0.58205559  0.48159402     0.08600
C215        C  0.08468785  0.55261307  0.49684040     0.10400
C216        C  0.05860687  0.52845984  0.51255945    -0.16300
C217        C  0.37495178  0.83483711  0.46324713    -0.15500
C218        C  0.39839944  0.86294322  0.47498952     0.08600
C219        C  0.42398930  0.89508426  0.49363301     0.10400
C220        C  0.44459640  0.92175913  0.51244594    -0.16300
C221        C  0.14646515  0.83518151  0.43367879    -0.15500
C222        C  0.12094281  0.86138593  0.42157563     0.08600
C223        C  0.09337213  0.89182651  0.40264752     0.10400
C224        C  0.07148327  0.91763420  0.38386364    -0.16300
C225        C  0.46090949  0.53096468  0.38697131    -0.15500
C226        C  0.43449554  0.55347423  0.40447940     0.08600
C227        C  0.40305157  0.58100669  0.42216966     0.10400
C228        C  0.37552990  0.60564516  0.43352921    -0.16300
C229        C  0.23821338  0.72185373  0.15312462    -0.15500
C230        C  0.24325682  0.71875204  0.19278210     0.08600
C231        C  0.24899657  0.71684878  0.23940342     0.10400
C232        C  0.25316581  0.71641373  0.27929477    -0.16300
C233        C  0.34297512  0.88988875  0.97148759    -0.15500
C234        C  0.31874912  0.86177609  0.98228223     0.08600
C235        C  0.29273513  0.82844607  0.99869659     0.10400
C236        C  0.27218628  0.80006527  0.01540298    -0.16300
C237        C  0.08642341  0.60753652  0.96167284    -0.15500
C238        C  0.11330436  0.63221796  0.97406068     0.08600
C239        C  0.14385386  0.65944615  0.99338907     0.10400
C240        C  0.16911864  0.68178893  0.01237517    -0.16300
C241        C  0.46737583  0.99741412  0.78145389    -0.15500
C242        C  0.52932659  0.50637315  0.73829028     0.08600
C243        C  0.03287698  0.99730359  0.68732728     0.10400
C244        C  0.51501053  0.51292008  0.65276360    -0.16300
C245        C  0.46029588  0.00615517  0.12367718    -0.15500
C246        C  0.95727047  0.50510863  0.15594106     0.08600
C247        C  0.53265570  0.48733268  0.20716845     0.10400
C248        C  0.52958818  0.48518501  0.24713438    -0.16300
C249        C  0.27192106  0.72869818  0.74859290    -0.15500
C250        C  0.26866561  0.72615118  0.70874073     0.08600
C251        C  0.26535322  0.72401889  0.66193195     0.09800
C252        C  0.26327028  0.72273041  0.62190548    -0.16300
C253        C  0.34111737  0.68775483  0.88889393    -0.15500
C254        C  0.36785047  0.66661348  0.90723422     0.08600
C255        C  0.40005431  0.64065606  0.92544331     0.10400
C256        C  0.42799904  0.61670663  0.93677160    -0.16300
C257        C  0.23041200  0.79849399  0.88838032    -0.15500
C258        C  0.20825084  0.82508290  0.90567348     0.08600
C259        C  0.18050479  0.85673400  0.92201734     0.10400
C260        C  0.15496290  0.88383236  0.93179120    -0.16300
C261        C  0.80860760  0.21275963  0.86178100     0.06100
C262        C  0.80553751  0.20939280  0.81549361    -0.10000
C263        C  0.77703769  0.23535613  0.79212994     0.03600
C264        C  0.75153927  0.26467883  0.81523164    -0.08500
C265        C  0.75457130  0.26804527  0.86154996     0.06100
C266        C  0.78313994  0.24209886  0.88480713    -0.08000
H267        H  0.82537277  0.18672712  0.79770200     0.11700
H268        H  0.72945187  0.28483350  0.79723993     0.09300
H269        H  0.78562720  0.24478626  0.92059291     0.09100
Zn270      Zn  0.04469562  0.04879903  0.90628034     1.49700
Zn271      Zn  0.59042901  0.49216537  0.98667912     1.49400
Zn272      Zn  0.91282936  0.50724247  0.98107737     1.49100
Zn273      Zn  0.95960289  0.44746023  0.91037628     1.49500
O274        O  0.96514153  0.49908946  0.94534063    -1.81100
O275        O  0.52474409  0.08208770  0.93168438    -0.71700
O276        O  0.57359046  0.48631635  0.05172061    -0.71600
O277        O  0.95337291  0.05385499  0.96768448    -0.71100
O278        O  0.55295745  0.04144546  0.98449979    -0.71800
O279        O  0.99077926  0.08354255  0.91218929    -0.71400
O280        O  0.92653774  0.51291843  0.04625030    -0.71900
O281        O  0.90724481  0.41356048  0.92908494    -0.71300
O282        O  0.62538992  0.44127733  0.96755604    -0.72100
O283        O  0.87421696  0.45602566  0.97742008    -0.71500
O284        O  0.58523561  0.41265142  0.91471192    -0.72000
O285        O  0.95844085  0.46045433  0.84467955    -0.71900
O286        O  0.04838897  0.03170823  0.84149156    -0.71600
C287        C  0.55353733  0.07460323  0.96041095     0.80100
C288        C  0.95978146  0.50297893  0.06823627     0.80600
C289        C  0.95777558  0.08187276  0.93747500     0.79600
C290        C  0.87668194  0.42130777  0.95633043     0.80000
C291        C  0.61887538  0.41307244  0.93833992     0.81100
C292        C  0.97009922  0.49294661  0.82248154     0.80200
C293        C  0.70292485  0.20654731  0.03349579     0.06100
C294        C  0.70923785  0.20022765  0.07911312    -0.10000
C295        C  0.73717092  0.22659324  0.10246087     0.03600
C296        C  0.75899221  0.25924313  0.07997655    -0.08500
C297        C  0.75280044  0.26563401  0.03432281     0.06100
C298        C  0.72471840  0.23926738  0.01110961    -0.08000
H299        H  0.69209690  0.17513206  0.09648992     0.11700
H300        H  0.78050715  0.27979577  0.09800299     0.09300
H301        H  0.71964605  0.24433076  0.97589765     0.09100
C302        C  0.54807159  0.45178838  0.36506630     0.06100
C303        C  0.55189057  0.45457224  0.31867459    -0.10000
C304        C  0.03005588  0.98433009  0.29048997     0.03600
C305        C  0.99920479  0.00883433  0.31286100    -0.08500
C306        C  0.99196640  0.00304506  0.35854944     0.06100
C307        C  0.51810271  0.47707270  0.38773560    -0.08000
H308        H  0.57502749  0.43492068  0.30114268     0.11700
H309        H  0.98067759  0.03213923  0.29471874     0.09300
H310        H  0.00980986  0.96781688  0.41713704     0.09100
Zn311      Zn  0.71146764  0.22648205  0.48746124     1.49700
Zn312      Zn  0.81270476  0.21304849  0.48227423     1.49400
Zn313      Zn  0.75240392  0.16709015  0.41168660     1.49100
Zn314      Zn  0.76600981  0.26676129  0.40668745     1.49500
O315        O  0.76053023  0.21828432  0.44702622    -1.81100
O316        O  0.73076151  0.23153727  0.55122830    -0.71700
O317        O  0.84777711  0.16222427  0.46345518    -0.71600
O318        O  0.70096054  0.13346413  0.43415597    -0.71100
O319        O  0.79912723  0.21065783  0.54814329    -0.71800
O320        O  0.67244697  0.17564189  0.48579152    -0.71400
O321        O  0.80525852  0.13026883  0.41490342    -0.71900
O322        O  0.76647427  0.24853152  0.34241879    -0.71300
O323        O  0.84957470  0.26472243  0.47403942    -0.72100
O324        O  0.74539625  0.18124618  0.34632380    -0.71500
O325        O  0.81848999  0.30200772  0.42032097    -0.72000
O326        O  0.71480809  0.30488867  0.41365297    -0.71900
O327        O  0.67669460  0.27815317  0.47024286    -0.71600
C328        C  0.76581758  0.22176231  0.57013972     0.80100
C329        C  0.84035331  0.13264260  0.43604625     0.80600
C330        C  0.67250086  0.14140829  0.46373142     0.79600
C331        C  0.75485252  0.21432100  0.32391787     0.80000
C332        C  0.84791014  0.29709848  0.44891471     0.81100
C333        C  0.68239441  0.30569836  0.43973691     0.80200
C334        C  0.97504084  0.44459008  0.53014936     0.06100
C335        C  0.96831657  0.44721021  0.57624496    -0.10000
C336        C  0.02224289  0.00357432  0.60024707     0.03600
C337        C  0.51461020  0.01257812  0.58561385    -0.08500
C338        C  0.52190351  0.00848078  0.53976613     0.06100
C339        C  0.00490524  0.47134281  0.50913742    -0.08000
H340        H  0.94522315  0.42647960  0.59256940     0.11700
H341        H  0.53271723  0.03559260  0.60436753     0.09300
H342        H  0.01018728  0.46924045  0.47346376     0.09100
C343        C  0.63972991  0.11058898  0.47346392    -0.15500
C344        C  0.61226330  0.08572571  0.48485521     0.08600
C345        C  0.58035324  0.05779069  0.50138357     0.10400
C346        C  0.55347474  0.03488097  0.51782799    -0.16300
C347        C  0.87901816  0.32997735  0.45513771    -0.15500
C348        C  0.90348603  0.35736667  0.46641133     0.08600
C349        C  0.93004080  0.38858686  0.48519543     0.10400
C350        C  0.95115878  0.41443925  0.50458031    -0.16300
C351        C  0.65098526  0.33833905  0.43334226    -0.15500
C352        C  0.62583071  0.36563185  0.42317484     0.08600
C353        C  0.59773366  0.39682595  0.40653859     0.10400
C354        C  0.57468314  0.42247914  0.38905359    -0.16300
C355        C  0.96008775  0.02825201  0.38122234    -0.15500
C356        C  0.93304075  0.05029658  0.39839523     0.08600
C357        C  0.90091687  0.07741737  0.41559558     0.10400
C358        C  0.87322614  0.10186727  0.42707391    -0.16300
C359        C  0.74246067  0.22091018  0.14971167    -0.15500
C360        C  0.74602761  0.21714298  0.18945890     0.08600
C361        C  0.74948377  0.21423525  0.23623187     0.10400
C362        C  0.75205860  0.21331655  0.27623981    -0.16300
C363        C  0.84517563  0.38905902  0.96544408    -0.15500
C364        C  0.82105438  0.36110588  0.97705123     0.08600
C365        C  0.79536112  0.32786841  0.99434766     0.10400
C366        C  0.77523657  0.29942396  0.01155779    -0.16300
C367        C  0.58726452  0.10486270  0.96715419    -0.15500
C368        C  0.61521525  0.12936228  0.97720194     0.08600
C369        C  0.64704731  0.15704635  0.99331431     0.10400
C370        C  0.67316706  0.17994736  0.01019334    -0.16300
C371        C  0.97277450  0.48999039  0.77485632    -0.15500
C372        C  0.03662540  0.99629721  0.73417150     0.08600
C373        C  0.52194369  0.50943081  0.69203555     0.10400
C374        C  0.02859778  0.99936428  0.64752336    -0.16300
C375        C  0.95784559  0.50428358  0.11588734    -0.15500
C376        C  0.46186361  0.00858592  0.16367058     0.08600
C377        C  0.04000094  0.99324182  0.20344205     0.10400
C378        C  0.03633908  0.98944292  0.24322503    -0.16300
C379        C  0.77417146  0.23201252  0.74446298    -0.15500
C380        C  0.77208118  0.22917350  0.70455352     0.08600
C381        C  0.76981918  0.22601128  0.65776485     0.09800
C382        C  0.76795514  0.22370517  0.61780007    -0.16300
C383        C  0.83833643  0.18629981  0.88537871    -0.15500
C384        C  0.86428441  0.16355836  0.90286342     0.08600
C385        C  0.89593635  0.13608761  0.91973742     0.10400
C386        C  0.92389365  0.11178715  0.93029344    -0.16300
C387        C  0.72825746  0.29818216  0.88503709    -0.15500
C388        C  0.70515858  0.32386664  0.90265877     0.08600
C389        C  0.67658033  0.35453409  0.91978315     0.10400
C390        C  0.65083133  0.38115393  0.93060347    -0.16300
C391        C  0.74440771  0.72775556  0.86221677     0.06100
C392        C  0.74631484  0.73213705  0.81587119    -0.10000
C393        C  0.71773946  0.75920151  0.79405104     0.03600
C394        C  0.68703754  0.78184729  0.81875231    -0.08500
C395        C  0.68507071  0.77759146  0.86518083     0.06100
C396        C  0.71377356  0.75048649  0.88690794    -0.08000
H397        H  0.77015563  0.71465750  0.79683347     0.11700
H398        H  0.66502145  0.80300274  0.80196025     0.09300
H399        H  0.71245132  0.74729451  0.92279865     0.09100
Zn400      Zn  0.97436151  0.54736830  0.90513374     1.49700
Zn401      Zn  0.51261382  0.99200926  0.99128400     1.49400
Zn402      Zn  0.99060061  0.00422648  0.98497885     1.49100
Zn403      Zn  0.03555319  0.94852805  0.90904235     1.49500
O404        O  0.04080977  0.99932937  0.94552845    -1.81100
O405        O  0.59886286  0.58394535  0.92961236    -0.71700
O406        O  0.49475070  0.99156926  0.05612905    -0.71600
O407        O  0.88008723  0.55874962  0.96035211    -0.71100
O408        O  0.62831524  0.54381198  0.98216777    -0.71800
O409        O  0.92290158  0.58635223  0.90784234    -0.71400
O410        O  0.00771692  0.00847033  0.04937117    -0.71900
O411        O  0.98446322  0.91280237  0.92819598    -0.71300
O412        O  0.54614510  0.93898353  0.97556787    -0.72100
O413        O  0.95420824  0.95185668  0.98138395    -0.71500
O414        O  0.50712047  0.91130022  0.92140138    -0.72000
O415        O  0.03157979  0.96321613  0.84362212    -0.71900
O416        O  0.97990036  0.52769352  0.84114720    -0.71600
C417        C  0.62763393  0.57731511  0.95858318     0.80100
C418        C  0.04280185  0.00004403  0.06886912     0.80600
C419        C  0.88836257  0.58676876  0.93095738     0.79600
C420        C  0.95562576  0.91855810  0.95790845     0.80000
C421        C  0.53992268  0.91085924  0.94618458     0.81100
C422        C  0.03977616  0.99707548  0.82204451     0.80200
C423        C  0.75790348  0.72538014  0.03638386     0.06100
C424        C  0.75098393  0.73097650  0.08214505    -0.10000
C425        C  0.77405268  0.76184794  0.10519199     0.03600
C426        C  0.80414979  0.78705298  0.08232431    -0.08500
C427        C  0.81112490  0.78152261  0.03658925     0.06100
C428        C  0.78799184  0.75067256  0.01363654    -0.08000
H429        H  0.72762973  0.71145788  0.09972481     0.11700
H430        H  0.82201274  0.81099031  0.10003686     0.09300
H431        H  0.79324263  0.74649065  0.97823649     0.09100
C432        C  0.51423409  0.00070241  0.36453581     0.06100
C433        C  0.50749924  0.99557377  0.31886058    -0.10000
C434        C  0.96324370  0.50884463  0.29045594     0.03600
C435        C  0.93637247  0.53568455  0.31514969    -0.08500
C436        C  0.94104875  0.53870365  0.36130112     0.06100
C437        C  0.48911140  0.02952625  0.38873711    -0.08000
H438        H  0.52709285  0.97342600  0.30009248     0.11700
H439        H  0.91232057  0.55461284  0.29843991     0.09300
H440        H  0.97645373  0.51741176  0.41844199     0.09100
Zn441      Zn  0.68854573  0.78904791  0.48570571     1.49700
Zn442      Zn  0.78891091  0.76952717  0.48811079     1.49400
Zn443      Zn  0.73088191  0.73137263  0.41040913     1.49100
Zn444      Zn  0.75123745  0.83000583  0.41171457     1.49500
O445        O  0.74005237  0.78010216  0.44900715    -1.81100
O446        O  0.70263558  0.79073007  0.55100773    -0.71700
O447        O  0.82063182  0.71595485  0.47034871    -0.71600
O448        O  0.67633377  0.69980109  0.42670700    -0.71100
O449        O  0.76945657  0.76542163  0.55262953    -0.71800
O450        O  0.64784670  0.73988803  0.48002278    -0.71400
O451        O  0.77948267  0.69025225  0.41678185    -0.71900
O452        O  0.75774233  0.81370109  0.34668722    -0.71300
O453        O  0.83076038  0.81832402  0.48434417    -0.72100
O454        O  0.73174804  0.74804358  0.34553691    -0.71500
O455        O  0.80479462  0.86099879  0.43195243    -0.72000
O456        O  0.70055874  0.87002316  0.41521625    -0.71900
O457        O  0.65714369  0.84202844  0.46695863    -0.71600
C458        C  0.73506283  0.77731962  0.57229831     0.80100
C459        C  0.81253362  0.68818139  0.44109678     0.80600
C460        C  0.64736946  0.70699404  0.45590507     0.79600
C461        C  0.74624896  0.78077326  0.32563276     0.80000
C462        C  0.83273545  0.85208928  0.46118794     0.81100
C463        C  0.66586571  0.87041777  0.43809500     0.80200
C464        C  0.98550283  0.98248215  0.53295849     0.06100
C465        C  0.99328193  0.97698829  0.57846409    -0.10000
C466        C  0.99143292  0.47660796  0.60123594     0.03600
C467        C  0.52819565  0.55040448  0.58201139    -0.08500
C468        C  0.52014089  0.55632863  0.53667171     0.06100
C469        C  0.00683043  0.01468285  0.50922404    -0.08000
H470        H  0.97639228  0.95247860  0.59699800     0.11700
H471        H  0.55109155  0.57060312  0.59861418     0.09300
H472        H  0.00037028  0.01954101  0.47428578     0.09100
C473        C  0.61447941  0.67592724  0.46399787    -0.15500
C474        C  0.58941049  0.64887061  0.47574524     0.08600
C475        C  0.56298215  0.61667250  0.49396592     0.10400
C476        C  0.54256092  0.58910128  0.51232552    -0.16300
C477        C  0.86716012  0.88136808  0.46936106    -0.15500
C478        C  0.89556917  0.90533758  0.47965124     0.08600
C479        C  0.92799011  0.93277705  0.49522408     0.10400
C480        C  0.95472801  0.95568393  0.51117259    -0.16300
C481        C  0.63467903  0.90286424  0.42949224    -0.15500
C482        C  0.60741489  0.92793203  0.41876372     0.08600
C483        C  0.57491781  0.95496509  0.40261382     0.10400
C484        C  0.54714303  0.97644238  0.38630177    -0.16300
C485        C  0.91450475  0.56772211  0.38611844    -0.15500
C486        C  0.89219770  0.59360207  0.40454959     0.08600
C487        C  0.86559209  0.62556913  0.42251985     0.10400
C488        C  0.84200176  0.65391441  0.43380350    -0.16300
C489        C  0.76684983  0.76773047  0.15226213    -0.15500
C490        C  0.76118213  0.77246857  0.19171781     0.08600
C491        C  0.75508745  0.77722481  0.23813913     0.10400
C492        C  0.75055255  0.77994204  0.27795556    -0.16300
C493        C  0.92423654  0.88616378  0.96652373    -0.15500
C494        C  0.89800841  0.86014941  0.97812260     0.08600
C495        C  0.86756513  0.83126930  0.99573025     0.10400
C496        C  0.84177042  0.80793924  0.01332899    -0.16300
C497        C  0.65939354  0.60930300  0.96652746    -0.15500
C498        C  0.68450587  0.63621429  0.97767086     0.08600
C499        C  0.71190873  0.66750117  0.99510960     0.10400
C500        C  0.73364019  0.69396923  0.01285514    -0.16300
C501        C  0.03870362  0.99632360  0.77423759    -0.15500
C502        C  0.97579946  0.48666393  0.73499454     0.08600
C503        C  0.47341561  0.99314026  0.69458571     0.10400
C504        C  0.98480079  0.47943713  0.64864479    -0.16300
C505        C  0.04325414  0.99897832  0.11660177    -0.15500
C506        C  0.53584482  0.48987799  0.16031927     0.08600
C507        C  0.95790561  0.50601189  0.20283897     0.10400
C508        C  0.95964791  0.50702876  0.24282740    -0.16300
C509        C  0.72061396  0.76416471  0.74640804    -0.15500
C510        C  0.72412672  0.76795361  0.70657810     0.08600
C511        C  0.72876252  0.77196696  0.65990725     0.09800
C512        C  0.73230237  0.77486692  0.62000104    -0.16300
C513        C  0.77422479  0.69992909  0.88401442    -0.15500
C514        C  0.80011242  0.67562498  0.89922940     0.08600
C515        C  0.83096782  0.64589821  0.91345572     0.10400
C516        C  0.85732405  0.61943291  0.92280139    -0.16300
C517        C  0.65426142  0.80201906  0.89035972    -0.15500
C518        C  0.62842534  0.82430418  0.90917286     0.08600
C519        C  0.59795406  0.85260861  0.92753768     0.10400
C520        C  0.57161230  0.87849161  0.93897817    -0.16300
loop_ 
_geom_bond_atom_site_label_1 
_geom_bond_atom_site_label_2 
_geom_bond_distance 
_geom_bond_site_symmetry_2 
_ccdc_geom_bond_type 
C1            C2   1.404       .  A
C1            C6   1.400       .  A
C1          C123   1.440       .  S
C2            C3   1.403       .  A
C2            H7   1.084       .  S
C3            C4   1.401       .  A
C3          C119   1.444       .  S
C4            C5   1.402       .  A
C4            H8   1.085       .  S
C5            C6   1.399       .  A
C5          C127   1.438       .  S
C6            H9   1.083       .  S
Zn10         O19   2.012       .  S
Zn10         O26   2.027       .  S
Zn10        O275   2.029       .  S
Zn10        O144   1.959   1_545  S
Zn11         O16   2.016   1_456  S
Zn11         O22   2.019       .  S
Zn11        O148   2.005       .  S
Zn11        O274   1.955   1_455  S
Zn12         O20   2.017   1_556  S
Zn12         O23   2.003       .  S
Zn12        O147   2.014       .  S
Zn12         O14   1.957       .  S
Zn13         O21   2.026       .  S
Zn13         O25   2.025       .  S
Zn13        O284   2.011       .  S
Zn13         O14   1.959       .  S
O14        Zn140   1.959       .  S
O14        Zn271   1.959       .  S
O15        Zn270   2.029       .  S
O15          C27   1.274       .  A
O16         C288   1.272       .  A
O17        Zn142   2.029       .  S
O17          C29   1.274       .  A
O18        Zn141   2.010   1_545  S
O18          C27   1.271       .  A
O19          C29   1.272       .  A
O20          C28   1.272       .  A
O21          C30   1.273       .  A
O22          C31   1.272       .  A
O23          C30   1.270       .  A
O24        Zn273   2.007   1_455  S
O24          C31   1.271       .  A
O25          C32   1.273       .  A
O26         C162   1.273   1_545  A
C27         C107   1.436       .  S
C28         C115   1.438       .  S
C28         O276   1.273       .  A
C29         C126   1.436       .  S
C30         C103   1.434       .  S
C31         C130   1.433       .  S
C32         C111   1.440       .  S
C32         O156   1.273       .  A
C33          C34   1.404       .  A
C33          C38   1.400       .  A
C33         C110   1.441       .  S
C34          C35   1.403       .  A
C34          H39   1.084       .  S
C35          C36   1.402       .  A
C35          C99   1.446       .  S
C36          C37   1.403       .  A
C36          H40   1.085       .  S
C37          C38   1.400       .  A
C37         C106   1.439       .  S
C38          H41   1.085   1_554  S
C42          C43   1.402       .  A
C42          C47   1.402       .  A
C42          C94   1.440   1_655  S
C43         C434   1.401       .  A
C43          H48   1.085   1_655  S
C44          C45   1.401       .  A
C44         C433   1.402   1_545  A
C44         C118   1.444       .  S
C45          C46   1.403       .  A
C45          H49   1.085       .  S
C46         C437   1.401       .  A
C46          C95   1.439       .  S
C47         C436   1.401       .  A
C47         H440   1.085       .  S
H50         C437   1.084       .  S
Zn51         O56   2.027       .  S
Zn51         O60   2.017       .  S
Zn51         O67   2.022       .  S
Zn51         O55   1.959       .  S
Zn52         O57   2.025       .  S
Zn52         O59   2.022       .  S
Zn52         O63   2.012       .  S
Zn52         O55   1.958       .  S
Zn53         O58   2.026       .  S
Zn53         O61   2.005       .  S
Zn53         O64   2.023       .  S
Zn53         O55   1.957       .  S
Zn54         O62   2.039       .  S
Zn54         O65   2.041       .  S
Zn54         O66   2.021       .  S
Zn54         O55   1.963       .  S
O56          C68   1.273       .  A
O57          C69   1.273       .  A
O58          C70   1.273       .  A
O59          C68   1.273       .  A
O60          C70   1.272       .  A
O61          C69   1.271       .  A
O62          C71   1.275       .  A
O63          C72   1.272       .  A
O64          C71   1.273       .  A
O65          C72   1.275       .  A
O66          C73   1.273       .  A
O67          C73   1.273       .  A
C68         C122   1.439       .  S
C69          C98   1.434       .  S
C70          C83   1.438       .  S
C71         C102   1.442       .  S
C72          C87   1.439       .  S
C73          C91   1.436       .  S
C74          C75   1.405       .  A
C74          C79   1.401       .  A
C74          C90   1.444       .  S
C75         C206   1.404       .  A
C75          H80   1.084       .  S
C76         C205   1.402       .  A
C76         C337   1.402   1_565  A
C76         C114   1.444       .  S
C77          C78   1.403       .  A
C77         C336   1.402       .  A
C77          H81   1.085       .  S
C78         C469   1.402       .  A
C78          C86   1.443       .  S
C79         C468   1.400       .  A
C79          H82   1.086       .  S
C83          C84   1.207       .  T
C84          C85   1.414       .  S
C85          C86   1.207       .  T
C87          C88   1.208       .  T
C88          C89   1.416       .  S
C89          C90   1.208       .  T
C91          C92   1.206       .  T
C92          C93   1.412       .  S
C93          C94   1.206       .  T
C95          C96   1.205       .  T
C96          C97   1.411       .  S
C97          C98   1.205       .  T
C99         C100   1.210       .  T
C100        C101   1.418       .  S
C101        C102   1.210       .  T
C103        C104   1.205       .  T
C104        C105   1.411       .  S
C105        C106   1.205   1_556  T
C107        C108   1.206       .  T
C108        C109   1.412       .  S
C109        C110   1.206   1_556  T
C111        C242   1.209       .  T
C112        C241   1.208       .  T
C112        C503   1.416       .  S
C113        C504   1.207       .  T
C113        C502   1.415       .  S
C114        C503   1.208       .  T
C115        C506   1.207       .  T
C116        C505   1.207       .  T
C116        C377   1.414       .  S
C117        C118   1.208       .  T
C117        C376   1.416       .  S
C119        C120   1.208       .  T
C120        C121   1.416       .  S
C121        C122   1.208       .  T
C123        C124   1.206       .  T
C124        C125   1.412       .  S
C125        C126   1.206       .  T
C127        C128   1.204       .  T
C128        C129   1.410       .  S
C129        C130   1.204       .  T
C131        C132   1.403       .  A
C131        C136   1.399       .  A
C131        C253   1.437       .  S
C132        C133   1.402       .  A
C132        H137   1.085       .  S
C133        C134   1.401       .  A
C133        C249   1.444       .  S
C134        C135   1.402       .  A
C134        H138   1.085       .  S
C135        C136   1.399       .  A
C135        C257   1.436       .  S
C136        H139   1.085       .  S
Zn140       O405   2.026       .  S
Zn140       O149   2.009       .  S
Zn140       O156   2.027       .  S
Zn141       O146   2.021   1_556  S
Zn141       O152   2.018       .  S
Zn141       O404   1.957       .  S
Zn142       O150   2.031   1_556  S
Zn142       O153   2.020   1_545  S
Zn142       O144   1.961   1_545  S
Zn143       O151   2.019       .  S
Zn143       O414   2.009       .  S
Zn143       O155   2.022       .  S
Zn143       O144   1.955       .  S
O144       Zn401   1.958       .  S
O145       Zn400   2.038   1_455  S
O145        C157   1.274       .  A
O146        C418   1.272   1_565  A
O147        C159   1.271       .  A
O148        C157   1.270       .  A
O149        C159   1.271       .  A
O150        C158   1.274       .  A
O151        C160   1.272       .  A
O152        C161   1.272       .  A
O153        C160   1.273       .  A
O154       Zn403   2.007       .  S
O154        C161   1.271       .  A
O155        C162   1.273       .  A
C157        C237   1.437       .  S
C158        C245   1.440       .  S
C158        O406   1.273   1_545  A
C159        C256   1.432       .  S
C160        C233   1.436       .  S
C161        C260   1.431       .  S
C162        C241   1.439       .  S
C163        C164   1.405       .  A
C163        C168   1.402       .  A
C163        C240   1.442       .  S
C164        C165   1.404       .  A
C164        H169   1.084       .  S
C165        C166   1.402       .  A
C165        C229   1.446       .  S
C166        C167   1.402       .  A
C166        H170   1.085       .  S
C167        C168   1.401       .  A
C167        C236   1.440       .  S
C168        H171   1.085   1_554  S
C172        C173   1.403       .  A
C172        C177   1.400       .  A
C172        C224   1.439       .  S
C173        C304   1.402       .  A
C173        H178   1.084       .  S
C174        C303   1.401       .  A
C174        C175   1.401       .  A
C174        C248   1.442       .  S
C175        C176   1.402       .  A
C175        H179   1.085       .  S
C176        C307   1.401       .  A
C176        C225   1.439       .  S
C177        C306   1.401   1_465  A
C177        H310   1.084       .  S
H180        C307   1.085       .  S
Zn181       O186   2.030       .  S
Zn181       O190   2.014       .  S
Zn181       O197   2.028       .  S
Zn181       O185   1.961       .  S
Zn182       O187   2.022       .  S
Zn182       O189   2.022       .  S
Zn182       O193   2.011       .  S
Zn182       O185   1.956       .  S
Zn183       O188   2.021       .  S
Zn183       O191   2.011       .  S
Zn183       O194   2.027       .  S
Zn183       O185   1.957       .  S
Zn184       O192   2.029       .  S
Zn184       O195   2.027       .  S
Zn184       O196   2.004       .  S
Zn184       O185   1.957       .  S
O186        C198   1.274       .  A
O187        C199   1.273       .  A
O188        C200   1.273       .  A
O189        C198   1.273       .  A
O190        C200   1.272       .  A
O191        C199   1.272       .  A
O192        C201   1.274       .  A
O193        C202   1.271       .  A
O194        C201   1.273       .  A
O195        C202   1.273       .  A
O196        C203   1.271       .  A
O197        C203   1.273       .  A
C198        C252   1.440       .  S
C199        C228   1.434       .  S
C200        C213   1.434       .  S
C201        C232   1.441       .  S
C202        C217   1.436       .  S
C203        C221   1.434       .  S
C204        C205   1.403       .  A
C204        C209   1.401       .  A
C204        C220   1.441       .  S
C205        H210   1.085       .  S
C206        C467   1.402       .  A
C206        C244   1.445       .  S
C207        C466   1.401   1_455  A
C207        C208   1.402       .  A
C207        H211   1.084       .  S
C208        C339   1.399       .  A
C208        C216   1.439       .  S
C209        C338   1.401   1_565  A
C209        H212   1.084       .  S
C213        C214   1.205       .  T
C214        C215   1.411       .  S
C215        C216   1.205       .  T
C217        C218   1.206       .  T
C218        C219   1.413       .  S
C219        C220   1.206       .  T
C221        C222   1.205       .  T
C222        C223   1.411       .  S
C223        C224   1.205       .  T
C225        C226   1.205       .  T
C226        C227   1.410       .  S
C227        C228   1.205       .  T
C229        C230   1.209       .  T
C230        C231   1.418       .  S
C231        C232   1.209       .  T
C233        C234   1.206       .  T
C234        C235   1.412       .  S
C235        C236   1.206   1_556  T
C237        C238   1.207       .  T
C238        C239   1.414       .  S
C239        C240   1.207   1_556  T
C242        C373   1.417       .  S
C243        C374   1.208       .  T
C243        C372   1.416       .  S
C244        C373   1.209       .  T
C245        C376   1.208       .  T
C246        C375   1.206       .  T
C246        C507   1.412       .  S
C247        C248   1.207       .  T
C247        C506   1.414       .  S
C249        C250   1.208       .  T
C250        C251   1.416       .  S
C251        C252   1.208       .  T
C253        C254   1.204       .  T
C254        C255   1.409       .  S
C255        C256   1.204       .  T
C257        C258   1.203       .  T
C258        C259   1.408       .  S
C259        C260   1.203       .  T
C261        C262   1.402       .  A
C261        C266   1.400       .  A
C261        C383   1.438       .  S
C262        C263   1.401       .  A
C262        H267   1.085       .  S
C263        C264   1.402       .  A
C263        C379   1.443       .  S
C264        C265   1.403       .  A
C264        H268   1.085       .  S
C265        C266   1.400       .  A
C265        C387   1.439       .  S
C266        H269   1.085       .  S
Zn270       O279   2.011   1_455  S
Zn270       O286   2.028       .  S
Zn270       O404   1.958   1_545  S
Zn271       O276   2.028   1_556  S
Zn271       O408   2.016       .  S
Zn271       O282   2.023       .  S
Zn272       O407   2.020       .  S
Zn272       O280   2.021   1_556  S
Zn272       O283   2.020       .  S
Zn272       O274   1.958       .  S
Zn273       O281   2.022       .  S
Zn273       O285   2.018       .  S
Zn273       O274   1.955       .  S
O274       Zn400   1.962       .  S
O275        C287   1.273       .  A
O277       Zn402   2.019       .  S
O277        C289   1.272       .  A
O278       Zn401   2.012   1_545  S
O278        C287   1.271       .  A
O279        C289   1.272       .  A
O280        C288   1.273       .  A
O281        C290   1.273       .  A
O282        C291   1.273       .  A
O283        C290   1.272       .  A
O284        C291   1.272       .  A
O285        C292   1.273       .  A
O286        C422   1.274   1_545  A
C287        C367   1.436       .  S
C288        C375   1.436       .  S
C289        C386   1.433       .  S
C290        C363   1.437       .  S
C291        C390   1.434       .  S
C292        C371   1.438       .  S
C292        O416   1.275       .  A
C293        C294   1.403       .  A
C293        C298   1.402       .  A
C293        C370   1.441       .  S
C294        C295   1.401       .  A
C294        H299   1.085       .  S
C295        C296   1.402       .  A
C295        C359   1.444       .  S
C296        C297   1.403       .  A
C296        H300   1.085       .  S
C297        C298   1.402       .  A
C297        C366   1.442       .  S
C298        H301   1.085   1_554  S
C302        C303   1.402       .  A
C302        C307   1.401       .  A
C302        C354   1.439       .  S
C303        H308   1.085       .  S
C304        C305   1.401   1_465  A
C304        C378   1.442       .  S
C305        C306   1.402       .  A
C305        H309   1.085       .  S
C306        C355   1.440       .  S
Zn311       O316   2.025       .  S
Zn311       O320   2.015       .  S
Zn311       O327   2.027       .  S
Zn311       O315   1.959       .  S
Zn312       O317   2.021       .  S
Zn312       O319   2.023       .  S
Zn312       O323   2.008       .  S
Zn312       O315   1.956       .  S
Zn313       O318   2.028       .  S
Zn313       O321   2.017       .  S
Zn313       O324   2.030       .  S
Zn313       O315   1.959       .  S
Zn314       O322   2.021       .  S
Zn314       O325   2.023       .  S
Zn314       O326   2.007       .  S
Zn314       O315   1.956       .  S
O316        C328   1.273       .  A
O317        C329   1.273       .  A
O318        C330   1.274       .  A
O319        C328   1.273       .  A
O320        C330   1.272       .  A
O321        C329   1.272       .  A
O322        C331   1.273       .  A
O323        C332   1.271       .  A
O324        C331   1.274       .  A
O325        C332   1.272       .  A
O326        C333   1.271       .  A
O327        C333   1.273       .  A
C328        C382   1.439       .  S
C329        C358   1.435       .  S
C330        C343   1.437       .  S
C331        C362   1.439       .  S
C332        C347   1.434       .  S
C333        C351   1.435       .  S
C334        C335   1.404       .  A
C334        C339   1.400   1_655  A
C334        C350   1.440       .  S
C335        C466   1.402       .  A
C335        H340   1.084       .  S
C336        C465   1.402   1_445  A
C336        C374   1.444   1_545  S
C337        C338   1.403       .  A
C337        H341   1.085       .  S
C338        C346   1.441       .  S
C339        H342   1.087       .  S
C343        C344   1.206       .  T
C344        C345   1.413       .  S
C345        C346   1.206       .  T
C347        C348   1.205       .  T
C348        C349   1.411       .  S
C349        C350   1.205       .  T
C351        C352   1.205       .  T
C352        C353   1.411       .  S
C353        C354   1.205       .  T
C355        C356   1.206       .  T
C356        C357   1.412       .  S
C357        C358   1.206       .  T
C359        C360   1.208       .  T
C360        C361   1.416       .  S
C361        C362   1.208       .  T
C363        C364   1.207       .  T
C364        C365   1.414       .  S
C365        C366   1.207   1_556  T
C367        C368   1.206       .  T
C368        C369   1.413       .  S
C369        C370   1.206   1_556  T
C371        C502   1.208       .  T
C372        C501   1.208       .  T
C377        C378   1.207       .  T
C379        C380   1.208       .  T
C380        C381   1.415       .  S
C381        C382   1.208       .  T
C383        C384   1.205       .  T
C384        C385   1.410       .  S
C385        C386   1.205       .  T
C387        C388   1.205       .  T
C388        C389   1.410       .  S
C389        C390   1.205       .  T
C391        C392   1.402       .  A
C391        C396   1.402       .  A
C391        C513   1.440       .  S
C392        C393   1.400       .  A
C392        H397   1.085       .  S
C393        C394   1.402       .  A
C393        C509   1.444       .  S
C394        C395   1.404       .  A
C394        H398   1.084       .  S
C395        C396   1.402       .  A
C395        C517   1.441       .  S
C396        H399   1.085       .  S
Zn400       O409   2.021       .  S
Zn400       O416   2.032       .  S
Zn401       O406   2.023   1_556  S
Zn401       O412   2.029       .  S
Zn402       O410   2.021   1_656  S
Zn402       O413   2.009   1_545  S
Zn402       O404   1.957   1_645  S
Zn403       O411   2.026   1_455  S
Zn403       O415   2.026       .  S
Zn403       O404   1.958       .  S
O405        C417   1.273       .  A
O407        C419   1.273       .  A
O408        C417   1.272       .  A
O409        C419   1.273       .  A
O410        C418   1.273       .  A
O411        C420   1.273       .  A
O412        C421   1.273       .  A
O413        C420   1.271       .  A
O414        C421   1.271       .  A
O415        C422   1.273       .  A
C417        C497   1.436       .  S
C418        C505   1.437   1_545  S
C419        C516   1.436       .  S
C420        C493   1.435       .  S
C421        C520   1.436       .  S
C422        C501   1.440       .  S
C423        C424   1.404       .  A
C423        C428   1.401       .  A
C423        C500   1.441       .  S
C424        C425   1.402       .  A
C424        H429   1.084       .  S
C425        C426   1.402       .  A
C425        C489   1.445       .  S
C426        C427   1.403       .  A
C426        H430   1.085       .  S
C427        C428   1.401       .  A
C427        C496   1.440       .  S
C428        H431   1.085   1_554  S
C432        C433   1.403   1_545  A
C432        C437   1.401       .  A
C432        C484   1.441   1_545  S
C433        H438   1.084       .  S
C434        C435   1.401       .  A
C434        C508   1.441       .  S
C435        C436   1.402       .  A
C435        H439   1.085       .  S
C436        C485   1.440       .  S
Zn441       O446   2.020       .  S
Zn441       O450   2.013       .  S
Zn441       O457   2.020       .  S
Zn441       O445   1.956       .  S
Zn442       O447   2.030       .  S
Zn442       O449   2.031       .  S
Zn442       O453   2.020       .  S
Zn442       O445   1.961       .  S
Zn443       O448   2.023       .  S
Zn443       O451   2.004       .  S
Zn443       O454   2.020       .  S
Zn443       O445   1.957       .  S
Zn444       O452   2.034       .  S
Zn444       O455   2.034       .  S
Zn444       O456   2.023       .  S
Zn444       O445   1.960       .  S
O446        C458   1.273       .  A
O447        C459   1.274       .  A
O448        C460   1.272       .  A
O449        C458   1.274       .  A
O450        C460   1.271       .  A
O451        C459   1.270       .  A
O452        C461   1.274       .  A
O453        C462   1.273       .  A
O454        C461   1.273       .  A
O455        C462   1.274       .  A
O456        C463   1.273       .  A
O457        C463   1.273       .  A
C458        C512   1.439       .  S
C459        C488   1.435       .  S
C460        C473   1.436       .  S
C461        C492   1.440       .  S
C462        C477   1.439       .  S
C463        C481   1.436       .  S
C464        C465   1.404       .  A
C464        C469   1.403   1_665  A
C464        C480   1.444       .  S
C465        H470   1.085       .  S
C466        C504   1.443       .  S
C467        C468   1.402       .  A
C467        H471   1.084       .  S
C468        C476   1.441       .  S
C469        H472   1.083       .  S
C473        C474   1.206       .  T
C474        C475   1.413       .  S
C475        C476   1.206       .  T
C477        C478   1.208       .  T
C478        C479   1.416       .  S
C479        C480   1.208       .  T
C481        C482   1.206       .  T
C482        C483   1.412       .  S
C483        C484   1.206       .  T
C485        C486   1.206       .  T
C486        C487   1.412       .  S
C487        C488   1.205       .  T
C489        C490   1.209       .  T
C490        C491   1.417       .  S
C491        C492   1.209       .  T
C493        C494   1.206       .  T
C494        C495   1.412       .  S
C495        C496   1.206   1_556  T
C497        C498   1.206       .  T
C498        C499   1.413       .  S
C499        C500   1.206   1_556  T
C507        C508   1.206       .  T
C509        C510   1.208       .  T
C510        C511   1.416       .  S
C511        C512   1.208       .  T
C513        C514   1.205       .  T
C514        C515   1.412       .  S
C515        C516   1.206       .  T
C517        C518   1.206       .  T
C518        C519   1.413       .  S
C519        C520   1.206       .  T
