geometry optimzed in LAMMPS
_audit_creation_date              2020-11-30 
_audit_creation_method            'lammps2cif' 
_symmetry_space_group_name_H-M    'P1' 
_symmetry_Int_Tables_number       1 
_symmetry_cell_setting            triclinic 
loop_ 
_symmetry_equiv_pos_as_xyz 
  x,y,z 
_cell_length_a                    43.27691586431402 
_cell_length_b                    42.827001857780516 
_cell_length_c                    35.282839411491565 
_cell_angle_alpha                 88.9669776729322 
_cell_angle_beta                  91.21085269497358 
_cell_angle_gamma                 119.3728076175462 
loop_ 
_atom_site_label 
_atom_site_type_symbol 
_atom_site_fract_x 
_atom_site_fract_y 
_atom_site_fract_z 
_atom_site_charge 
C1          C  0.47980061  0.01434441  0.25213427     0.03470
C2          C  0.01621977  0.03754810  0.24703986    -0.12680
C3          C  0.03994641  0.02413318  0.24540127     0.00970
C4          C  0.02651807  0.48681074  0.99508654    -0.11210
C5          C  0.49011021  0.46301386  0.99993291     0.03460
C6          C  0.46729572  0.47727870  0.00451175    -0.10630
H7          H  0.02630142  0.06619121  0.24523623     0.09060
H8          H  0.04458839  0.47649911  0.99112236     0.06590
H9          H  0.43946686  0.45934749  0.00986361     0.06430
C10         C  0.42845302  0.30824126  0.99775092     0.03470
C11         C  0.42001432  0.28930962  0.21353127    -0.12680
C12         C  0.40421683  0.25185198  0.21391714     0.00970
C13         C  0.39726489  0.23335920  0.99860777    -0.11210
C14         C  0.40420166  0.25189162  0.03282044     0.03460
C15         C  0.42012423  0.28932920  0.03234868    -0.10630
H16         H  0.42461403  0.30358427  0.18673954     0.09060
H17         H  0.38311846  0.20427691  0.99889696     0.06590
H18         H  0.42458020  0.30360445  0.05874824     0.06430
C19         C  0.38072089  0.06889743  0.25159263     0.03470
C20         C  0.37041144  0.07750074  0.21665280    -0.12680
C21         C  0.34871106  0.09333490  0.21553799     0.00970
C22         C  0.33710995  0.10037445  0.24947711    -0.11210
C23         C  0.34882458  0.09371257  0.03443510     0.03460
C24         C  0.37045753  0.07784239  0.03542709    -0.10630
H25         H  0.38035565  0.07312510  0.19046596     0.09060
H26         H  0.32209726  0.11455897  0.24866992     0.06590
H27         H  0.38003392  0.07332073  0.06245999     0.06430
Fe28       Fe  0.32552190  0.20737450  0.12238476     1.65780
Fe29       Fe  0.38255973  0.17307844  0.12438509     1.73250
Fe30       Fe  0.29251483  0.11621841  0.12307269     1.54410
O31         O  0.26633606  0.12696445  0.16440626    -0.81330
O32         O  0.37207822  0.13588495  0.08293589    -0.79640
O33         O  0.28801741  0.18618225  0.16462516    -0.83840
O34         O  0.28832871  0.18677691  0.07888635    -0.78700
O35         O  0.31361018  0.09906511  0.16666584    -0.80470
O36         O  0.39880785  0.21077790  0.08108879    -0.83210
C37         C  0.26817682  0.15570538  0.06595467     0.97550
C38         C  0.26800830  0.15500106  0.17778518     1.04990
O39         O  0.33352736  0.16555244  0.12330046    -1.12200
O40         O  0.39894956  0.21091747  0.16688448    -0.74630
O41         O  0.36205677  0.23335350  0.16486958    -0.78120
O42         O  0.26628690  0.12751903  0.08035932    -0.78810
C43         C  0.38806236  0.23136297  0.17932924     0.96450
O44         O  0.36235702  0.23374135  0.08089917    -0.76760
O45         O  0.37208665  0.13593192  0.16687457    -0.81960
C46         C  0.34445667  0.11012528  0.06856388     0.99080
C47         C  0.34447501  0.10976883  0.18041461     1.04990
O48         O  0.31351811  0.09962661  0.08078993    -0.77600
C49         C  0.38811053  0.23147262  0.06751678     1.03290
C50         C  0.19186440  0.12122029  0.24587865     0.03470
C51         C  0.21088328  0.13181087  0.03045736    -0.12680
C52         C  0.24794704  0.15192151  0.03085596     0.00970
C53         C  0.26617274  0.16250730  0.24659561    -0.11210
C54         C  0.24774378  0.15099150  0.21203673     0.03460
C55         C  0.21067055  0.13015970  0.21172754    -0.10630
H56         H  0.19699727  0.12350796  0.05712640     0.09060
H57         H  0.29495003  0.17664709  0.24694994     0.06590
H58         H  0.19661266  0.11997037  0.18508889     0.06430
C59         C  0.09324729  0.07895297  0.22096583    -0.11930
C60         C  0.07885990  0.04921577  0.24569652     0.05080
C61         C  0.10167946  0.04448239  0.02150529    -0.07210
C62         C  0.13825389  0.06780955  0.02017718    -0.07960
C63         C  0.15272736  0.09767716  0.24574618    -0.02510
C64         C  0.12974249  0.10393345  0.22151586     0.04310
N65         N  0.14256553  0.13607561  0.19882355     0.66810
H66         H  0.07577244  0.08328200  0.20187634     0.15710
H67         H  0.15549124  0.06310063  0.03926743     0.15420
N68         N  0.08799375  0.01793007  0.05111743     0.74520
O69         O  0.12708465  0.13582303  0.16800280    -0.38930
O70         O  0.16614652  0.16572699  0.21183703    -0.38880
O71         O  0.10420840  0.50124044  0.06084178    -0.39580
O72         O  0.06375644  0.01597202  0.07199228    -0.39650
C73         C  0.47643826  0.36843825  0.01597363    -0.11930
C74         C  0.44375711  0.34762512  0.99758040     0.05080
C75         C  0.42628126  0.36463347  0.22982464    -0.07210
C76         C  0.44276220  0.40220817  0.22987058    -0.07960
C77         C  0.47514198  0.42325654  0.99921365    -0.02510
C78         C  0.99191786  0.40579723  0.01767083     0.04310
N79         N  0.02323490  0.42507469  0.04047879     0.66810
H80         H  0.98953146  0.35536943  0.03018782     0.15710
H81         H  0.42961597  0.41509067  0.21546568     0.15420
N82         N  0.39130725  0.34435993  0.21330493     0.74520
O83         O  0.02231520  0.44193116  0.06898893    -0.38930
O84         O  0.04916217  0.41966010  0.28665618    -0.38880
O85         O  0.36840198  0.31575705  0.97893439    -0.39580
O86         O  0.38170722  0.35740152  0.18614903    -0.39650
C87         C  0.42202126  0.51014012  0.23344806    -0.11890
C88         C  0.45429859  0.02827395  0.25377039     0.05080
C89         C  0.46150197  0.05928207  0.02441404    -0.07210
C90         C  0.43708255  0.07188275  0.02284361    -0.07960
C91         C  0.40484380  0.05353875  0.25278204    -0.02510
C92         C  0.39675582  0.02167901  0.23355037     0.04310
N93         N  0.36281348  0.50013373  0.21524834     0.66810
H94         H  0.41617915  0.48636029  0.21762113     0.15710
H95         H  0.44306980  0.09606681  0.03798553     0.15420
N96         N  0.49259419  0.07758185  0.04812627     0.74520
O97         O  0.35995402  0.48019231  0.18792908    -0.38930
O98         O  0.33493782  0.49720542  0.97938737    -0.38880
O99         O  0.00817055  0.11130025  0.30066712    -0.39580
O100        O  0.50196468  0.06001932  0.07005559    -0.39650
C101        C  0.47980163  0.01434452  0.50213480     0.03470
C102        C  0.01622074  0.03754829  0.49704000    -0.12680
C103        C  0.03994738  0.02413340  0.49540095     0.00970
C104        C  0.02651979  0.48680934  0.24508731    -0.11210
C105        C  0.49011155  0.46301352  0.24993360     0.03460
C106        C  0.46729771  0.47727923  0.25451133    -0.10630
H107        H  0.02630234  0.06619142  0.49523645     0.09060
H108        H  0.04458855  0.47649748  0.24112407     0.06590
H109        H  0.43946902  0.45934896  0.25986282     0.06430
C110        C  0.42845383  0.30824089  0.24775119     0.03470
C111        C  0.42001592  0.28930990  0.46353178    -0.12680
C112        C  0.40421835  0.25185225  0.46391762     0.00970
C113        C  0.39726674  0.23335892  0.24860746    -0.11210
C114        C  0.40420336  0.25189115  0.28282033     0.03460
C115        C  0.42012539  0.28932863  0.28234869    -0.10630
H116        H  0.42461592  0.30358459  0.43674006     0.09060
H117        H  0.38312063  0.20427660  0.24889651     0.06590
H118        H  0.42458132  0.30360386  0.30874871     0.06430
C119        C  0.38072166  0.06889711  0.50159380     0.03470
C120        C  0.37041272  0.07750058  0.46665376    -0.12680
C121        C  0.34871272  0.09333513  0.46553850     0.00970
C122        C  0.33711143  0.10037492  0.49947737    -0.11210
C123        C  0.34882827  0.09371398  0.28443450     0.03460
C124        C  0.37046280  0.07784546  0.28542595    -0.10630
H125        H  0.38035713  0.07312485  0.44046710     0.09060
H126        H  0.32209905  0.11455975  0.49866982     0.06590
H127        H  0.38003957  0.07332429  0.31245776     0.06430
Fe128      Fe  0.32552392  0.20737434  0.37238498     1.65780
Fe129      Fe  0.38256210  0.17307871  0.37438566     1.73250
Fe130      Fe  0.29251725  0.11621836  0.37307218     1.54410
O131        O  0.26633883  0.12696366  0.41440675    -0.81330
O132        O  0.37208097  0.13588408  0.33293769    -0.79640
O133        O  0.28801822  0.18618124  0.41462418    -0.83840
O134        O  0.28833186  0.18677737  0.32888576    -0.78700
O135        O  0.31361294  0.09906426  0.41666434    -0.80470
O136        O  0.39880941  0.21077673  0.33108802    -0.83210
C137        C  0.26817904  0.15570579  0.31595487     0.97550
C138        C  0.26800992  0.15500007  0.42778480     1.04990
O139        O  0.33352961  0.16555245  0.37330062    -1.12200
O140        O  0.39895231  0.21091901  0.41688391    -0.74630
O141        O  0.36205753  0.23335265  0.41487087    -0.78120
O142        O  0.26628847  0.12751931  0.33036000    -0.78810
C143        C  0.38806404  0.23136332  0.42932963     0.96450
O144        O  0.36236004  0.23374190  0.33090035    -0.76760
O145        O  0.37208901  0.13593352  0.41687648    -0.81960
C146        C  0.34445956  0.11012576  0.31856374     0.99080
C147        C  0.34447737  0.10976923  0.43041493     1.04990
O148        O  0.31352060  0.09962795  0.33078812    -0.77600
C149        C  0.38811262  0.23147215  0.31751681     1.03290
C150        C  0.19186541  0.12121998  0.49587751     0.03470
C151        C  0.21088532  0.13181003  0.28045771    -0.12680
C152        C  0.24794897  0.15192197  0.28085649     0.00970
C153        C  0.26617378  0.16250658  0.49659501    -0.11210
C154        C  0.24774507  0.15099052  0.46203604     0.03460
C155        C  0.21067180  0.13015890  0.46172655    -0.10630
H156        H  0.19699906  0.12350589  0.30712727     0.09060
H157        H  0.29495107  0.17664623  0.49694960     0.06590
H158        H  0.19661408  0.11996940  0.43508787     0.06430
C159        C  0.09324823  0.07895290  0.47096492    -0.11930
C160        C  0.07886085  0.04921596  0.49569597     0.05080
C161        C  0.10168194  0.04448048  0.27150423    -0.07210
C162        C  0.13825685  0.06780786  0.27017709    -0.07960
C163        C  0.15272837  0.09767694  0.49574499    -0.02510
C164        C  0.12974352  0.10393318  0.47151460     0.04310
N165        N  0.14256665  0.13607510  0.44882185     0.66810
H166        H  0.07577338  0.08328185  0.45187548     0.15710
H167        H  0.15549178  0.06309971  0.28926473     0.15420
N168        N  0.08799657  0.01792786  0.30111621     0.74520
O169        O  0.12708551  0.13582235  0.41800124    -0.38930
O170        O  0.16614806  0.16572652  0.46183483    -0.38880
O171        O  0.10421047  0.50123726  0.31083902    -0.39580
O172        O  0.06376049  0.01597091  0.32199250    -0.39650
C173        C  0.47643840  0.36843740  0.26597598    -0.11930
C174        C  0.44375771  0.34762478  0.24758100     0.05080
C175        C  0.42628235  0.36463364  0.47982517    -0.07210
C176        C  0.44276325  0.40220833  0.47987106    -0.07960
C177        C  0.47514272  0.42325606  0.24921511    -0.02510
C178        C  0.99191764  0.40579660  0.26767335     0.04310
N179        N  0.02323368  0.42507363  0.29048308     0.66810
H180        H  0.98952981  0.35536959  0.28018952     0.15710
H181        H  0.42961700  0.41509080  0.46546620     0.15420
N182        N  0.39130833  0.34436005  0.46330550     0.74520
O183        O  0.02231305  0.44193142  0.31899163    -0.38930
O184        O  0.04916331  0.41966036  0.53665663    -0.38880
O185        O  0.36840315  0.31575695  0.22893243    -0.39580
O186        O  0.38170817  0.35740168  0.43614975    -0.39650
C187        C  0.42202209  0.51013997  0.48344913    -0.11890
C188        C  0.45429951  0.02827389  0.50377128     0.05080
C189        C  0.46150689  0.05928485  0.27441186    -0.07210
C190        C  0.43708781  0.07188520  0.27284063    -0.07960
C191        C  0.40484445  0.05353830  0.50278352    -0.02510
C192        C  0.39675660  0.02167873  0.48355157     0.04310
N193        N  0.36281417  0.50013335  0.46524974     0.66810
H194        H  0.41618002  0.48636018  0.46762209     0.15710
H195        H  0.44307682  0.09607445  0.28798564     0.15420
N196        N  0.49259931  0.07758397  0.29812363     0.74520
O197        O  0.35995469  0.48019196  0.43793044    -0.38930
O198        O  0.33494265  0.49720901  0.22938566    -0.38880
O199        O  0.00817114  0.11130002  0.55066853    -0.39580
O200        O  0.50196923  0.06002157  0.32005353    -0.39650
C201        C  0.47980028  0.01434416  0.75213558     0.03470
C202        C  0.01621934  0.03754777  0.74704025    -0.12680
C203        C  0.03994584  0.02413271  0.74540078     0.00970
C204        C  0.02652080  0.48680954  0.49508723    -0.11210
C205        C  0.49011262  0.46301371  0.49993389     0.03460
C206        C  0.46729880  0.47727937  0.50451193    -0.10630
H207        H  0.02630103  0.06619091  0.74523659     0.09060
H208        H  0.04458954  0.47649769  0.49112385     0.06590
H209        H  0.43947017  0.45934908  0.50986371     0.06430
C210        C  0.42845503  0.30824112  0.49775172     0.03470
C211        C  0.42001465  0.28930954  0.71353258    -0.12680
C212        C  0.40421727  0.25185191  0.71391822     0.00970
C213        C  0.39726770  0.23335914  0.49860795    -0.11210
C214        C  0.40420398  0.25189132  0.53282082     0.03460
C215        C  0.42012613  0.28932881  0.53234920    -0.10630
H216        H  0.42461499  0.30358437  0.68674092     0.09060
H217        H  0.38312148  0.20427682  0.49889695     0.06590
H218        H  0.42458179  0.30360403  0.55874919     0.06430
C219        C  0.38072066  0.06889719  0.75159486     0.03470
C220        C  0.37041221  0.07750085  0.71665466    -0.12680
C221        C  0.34871183  0.09333495  0.71553896     0.00970
C222        C  0.33710956  0.10037402  0.74947757    -0.11210
C223        C  0.34882910  0.09371411  0.53443502     0.03460
C224        C  0.37046333  0.07784524  0.53542691    -0.10630
H225        H  0.38035717  0.07312547  0.69046820     0.09060
H226        H  0.32209680  0.11455845  0.74866969     0.06590
H227        H  0.38003972  0.07332390  0.56245887     0.06430
Fe228      Fe  0.32552376  0.20737427  0.62238481     1.65780
Fe229      Fe  0.38256202  0.17307873  0.62438621     1.73250
Fe230      Fe  0.29251720  0.11621831  0.62307204     1.54410
O231        O  0.26633810  0.12696359  0.66440599    -0.81330
O232        O  0.37208138  0.13588453  0.58293792    -0.79640
O233        O  0.28801800  0.18618123  0.66462401    -0.83840
O234        O  0.28833175  0.18677718  0.57888557    -0.78700
O235        O  0.31361239  0.09906441  0.66666475    -0.80470
O236        O  0.39880985  0.21077717  0.58108893    -0.83210
C237        C  0.26817942  0.15570563  0.56595431     0.97550
C238        C  0.26800929  0.15499999  0.67778424     1.04990
O239        O  0.33352951  0.16555242  0.62330069    -1.12200
O240        O  0.39895163  0.21091859  0.66688483    -0.74630
O241        O  0.36205731  0.23335277  0.66487067    -0.78120
O242        O  0.26628905  0.12751920  0.58035925    -0.78810
C243        C  0.38806345  0.23136313  0.67933005     0.96450
O244        O  0.36235991  0.23374169  0.58090016    -0.76760
O245        O  0.37208855  0.13593311  0.66687673    -0.81960
C246        C  0.34446012  0.11012591  0.56856412     0.99080
C247        C  0.34447677  0.10976909  0.68041530     1.04990
O248        O  0.31352111  0.09962777  0.58078856    -0.77600
C249        C  0.38811288  0.23147228  0.56751720     1.03290
C250        C  0.19186389  0.12121946  0.74587600     0.03470
C251        C  0.21088609  0.13181011  0.53045667    -0.12680
C252        C  0.24794972  0.15192181  0.53085572     0.00970
C253        C  0.26617224  0.16250654  0.74659444    -0.11210
C254        C  0.24774397  0.15099029  0.71203522     0.03460
C255        C  0.21067068  0.13015845  0.71172528    -0.10630
H256        H  0.19699962  0.12350635  0.55712614     0.09060
H257        H  0.29494953  0.17664635  0.74694943     0.06590
H258        H  0.19661326  0.11996881  0.68508648     0.06430
C259        C  0.09324653  0.07895181  0.72096369    -0.11930
C260        C  0.07885935  0.04921511  0.74569509     0.05080
C261        C  0.10168290  0.04448077  0.52150374    -0.07210
C262        C  0.13825783  0.06780791  0.52017627    -0.07960
C263        C  0.15272690  0.09767606  0.74574321    -0.02510
C264        C  0.12974185  0.10393205  0.72151287     0.04310
N265        N  0.14256479  0.13607370  0.69881970     0.66810
H266        H  0.07577148  0.08328063  0.70187440     0.15710
H267        H  0.15549273  0.06309985  0.53926395     0.15420
N268        N  0.08799754  0.01792849  0.55111607     0.74520
O269        O  0.12708341  0.13582056  0.66799913    -0.38930
O270        O  0.16614623  0.16572529  0.71183227    -0.38880
O271        O  0.10421142  0.50123810  0.56083962    -0.39580
O272        O  0.06376136  0.01597168  0.57199210    -0.39650
C273        C  0.47643958  0.36843766  0.51597645    -0.11930
C274        C  0.44375887  0.34762500  0.49758152     0.05080
C275        C  0.42628046  0.36463304  0.72982617    -0.07210
C276        C  0.44276139  0.40220774  0.72987199    -0.07960
C277        C  0.47514381  0.42325626  0.49921549    -0.02510
C278        C  0.99191879  0.40579687  0.51767375     0.04310
N279        N  0.02323489  0.42507400  0.54048339     0.66810
H280        H  0.98953099  0.35536990  0.53018999     0.15710
H281        H  0.42961513  0.41509021  0.71546718     0.15420
N282        N  0.39130646  0.34435944  0.71330645     0.74520
O283        O  0.02231442  0.44193218  0.56899167    -0.38930
O284        O  0.04916158  0.41965964  0.78665713    -0.38880
O285        O  0.36840432  0.31575696  0.47893291    -0.39580
O286        O  0.38170632  0.35740107  0.68615069    -0.39650
C287        C  0.42202083  0.51013985  0.73345019    -0.11890
C288        C  0.45429826  0.02827365  0.75377231     0.05080
C289        C  0.46150769  0.05928459  0.52441304    -0.07210
C290        C  0.43708843  0.07188473  0.52284215    -0.07960
C291        C  0.40484332  0.05353823  0.75278488    -0.02510
C292        C  0.39675539  0.02167868  0.73355284     0.04310
N293        N  0.36281310  0.50013362  0.71525065     0.66810
H294        H  0.41617871  0.48636011  0.71762298     0.15710
H295        H  0.44307735  0.09607392  0.53798734     0.15420
N296        N  0.49260021  0.07758377  0.54812467     0.74520
O297        O  0.35995373  0.48019262  0.68793099    -0.38930
O298        O  0.33494334  0.49720862  0.47938708    -0.38880
O299        O  0.00817015  0.11129972  0.80066956    -0.39580
O300        O  0.50197053  0.06002140  0.57005411    -0.39650
C301        C  0.47979749  0.01434354  0.00213539     0.03470
C302        C  0.01621668  0.03754862  0.99704098    -0.12680
C303        C  0.03994398  0.02413424  0.99540150     0.00970
C304        C  0.02651912  0.48680885  0.74508720    -0.11210
C305        C  0.49011099  0.46301315  0.74993441     0.03460
C306        C  0.46729733  0.47727896  0.75451279    -0.10630
H307        H  0.02629695  0.06618967  0.99523824     0.09060
H308        H  0.04458770  0.47649685  0.74112355     0.06590
H309        H  0.43946874  0.45934876  0.75986486     0.06430
C310        C  0.42845317  0.30824055  0.74775261     0.03470
C311        C  0.42001331  0.28930970  0.96353125    -0.12680
C312        C  0.40421538  0.25185207  0.96391735     0.00970
C313        C  0.39726620  0.23335860  0.74860845    -0.11210
C314        C  0.40420175  0.25189055  0.78282138     0.03460
C315        C  0.42012374  0.28932803  0.78234997    -0.10630
H316        H  0.42461321  0.30358441  0.93673898     0.09060
H317        H  0.38312016  0.20427628  0.74889724     0.06590
H318        H  0.42457898  0.30360310  0.80875000     0.06430
C319        C  0.38071556  0.06889371  0.00159437     0.03470
C320        C  0.37040715  0.07749744  0.96665394    -0.12680
C321        C  0.34870820  0.09333329  0.96553871     0.00970
C322        C  0.33710753  0.10037394  0.99947740    -0.11210
C323        C  0.34882682  0.09371319  0.78443545     0.03460
C324        C  0.37046158  0.07784487  0.78542777    -0.10630
H325        H  0.38035103  0.07312147  0.94046833     0.09060
H326        H  0.32209609  0.11455985  0.99866974     0.06590
H327        H  0.38003767  0.07332347  0.81245990     0.06430
Fe328      Fe  0.32552094  0.20737345  0.87238494     1.65780
Fe329      Fe  0.38255902  0.17307768  0.87438657     1.73250
Fe330      Fe  0.29251416  0.11621743  0.87307175     1.54410
O331        O  0.26633597  0.12696232  0.91440720    -0.81330
O332        O  0.37207827  0.13588205  0.83293984    -0.79640
O333        O  0.28801387  0.18617972  0.91462305    -0.83840
O334        O  0.28833039  0.18677717  0.82888437    -0.78700
O335        O  0.31360970  0.09906231  0.91666311    -0.80470
O336        O  0.39880621  0.21077470  0.83108805    -0.83210
C337        C  0.26817704  0.15570554  0.81595394     0.97550
C338        C  0.26800631  0.15499868  0.92778453     1.04990
O339        O  0.33352657  0.16555150  0.87330084    -1.12200
O340        O  0.39894955  0.21091917  0.91688356    -0.74630
O341        O  0.36205333  0.23335108  0.91487188    -0.78120
O342        O  0.26628531  0.12751891  0.83036006    -0.78810
C343        C  0.38806069  0.23136280  0.92932977     0.96450
O344        O  0.36235850  0.23374185  0.83090161    -0.76760
O345        O  0.37208548  0.13593338  0.91687840    -0.81960
C346        C  0.34445705  0.11012470  0.81856439     0.99080
C347        C  0.34447375  0.10976798  0.93041519     1.04990
O348        O  0.31351767  0.09962781  0.83078699    -0.77600
C349        C  0.38811046  0.23147121  0.81751756     1.03290
C350        C  0.19186222  0.12122088  0.99587822     0.03470
C351        C  0.21088417  0.13180980  0.78045537    -0.12680
C352        C  0.24794778  0.15192169  0.78085494     0.00970
C353        C  0.26617084  0.16250520  0.99659503    -0.11210
C354        C  0.24774173  0.15098944  0.96203611     0.03460
C355        C  0.21066838  0.13015903  0.96172719    -0.10630
H356        H  0.19699740  0.12350600  0.80712467     0.09060
H357        H  0.29494805  0.17664397  0.99694934     0.06590
H358        H  0.19660984  0.11996947  0.93508790     0.06430
C359        C  0.09324522  0.07895489  0.97096734    -0.11930
C360        C  0.07885725  0.04921768  0.99569719     0.05080
C361        C  0.10168166  0.04448002  0.77150253    -0.07210
C362        C  0.13825657  0.06780712  0.77017463    -0.07960
C363        C  0.15272511  0.09767845  0.99574650    -0.02510
C364        C  0.12973998  0.10393526  0.97151642     0.04310
N365        N  0.14256346  0.13607766  0.94882460     0.66810
H366        H  0.07576767  0.08328473  0.95187520     0.15710
H367        H  0.15549163  0.06309920  0.78926222     0.15420
N368        N  0.08799663  0.01792794  0.80111507     0.74520
O369        O  0.12708119  0.13582591  0.91800491    -0.38930
O370        O  0.16614592  0.16572847  0.96183727    -0.38880
O371        O  0.10421048  0.50123735  0.81083805    -0.39580
O372        O  0.06376098  0.01597157  0.82199166    -0.39650
C373        C  0.47643774  0.36843707  0.76597735    -0.11930
C374        C  0.44375697  0.34762442  0.74758253     0.05080
C375        C  0.42628001  0.36463370  0.97982465    -0.07210
C376        C  0.44276118  0.40220808  0.97987050    -0.07960
C377        C  0.47514206  0.42325569  0.74921623    -0.02510
C378        C  0.99191705  0.40579631  0.76767452     0.04310
N379        N  0.02323330  0.42507351  0.79048391     0.66810
H380        H  0.98952913  0.35536931  0.78019093     0.15710
H381        H  0.42961309  0.41509161  0.96546486     0.15420
N382        N  0.39130556  0.34435979  0.96330630     0.74520
O383        O  0.02231313  0.44193203  0.81899203    -0.38930
O384        O  0.04916407  0.41966275  0.03664839    -0.38880
O385        O  0.36840249  0.31575624  0.72893373    -0.39580
O386        O  0.38170469  0.35740113  0.93615070    -0.39650
C387        C  0.42201699  0.51013664  0.98344942    -0.11890
C388        C  0.45429464  0.02827218  0.00377235     0.05080
C389        C  0.46150657  0.05928436  0.77441417    -0.07210
C390        C  0.43708731  0.07188453  0.77284353    -0.07960
C391        C  0.40483838  0.05353481  0.00278423    -0.02510
C392        C  0.39675099  0.02167564  0.98355293     0.04310
N393        N  0.36280880  0.50012951  0.96525056     0.66810
H394        H  0.41617676  0.48636214  0.96762546     0.15710
H395        H  0.44307628  0.09607370  0.78798878     0.15420
N396        N  0.49259926  0.07758352  0.79812556     0.74520
O397        O  0.35994929  0.48018725  0.93793251    -0.38930
O398        O  0.33494223  0.49720878  0.72938799    -0.38880
O399        O  0.00816385  0.11129733  0.05067194    -0.39580
O400        O  0.50196984  0.06002115  0.82005466    -0.39650
C401        C  0.47980061  0.51434441  0.25213427     0.03470
C402        C  0.01621978  0.53754810  0.24703985    -0.12680
C403        C  0.03994641  0.52413318  0.24540123     0.00970
C404        C  0.02651807  0.98681074  0.99508655    -0.11210
C405        C  0.49011018  0.96301386  0.99993313     0.03460
C406        C  0.46729570  0.97727873  0.00451185    -0.10630
H407        H  0.02630142  0.56619122  0.24523623     0.09060
H408        H  0.04458839  0.97649912  0.99112236     0.06590
H409        H  0.43946683  0.95934753  0.00986371     0.06430
C410        C  0.42845303  0.80824128  0.99775097     0.03470
C411        C  0.42001432  0.78930962  0.21353127    -0.12680
C412        C  0.40421683  0.75185197  0.21391713     0.00970
C413        C  0.39726491  0.73335921  0.99860776    -0.11210
C414        C  0.40420166  0.75189162  0.03282045     0.03460
C415        C  0.42012422  0.78932919  0.03234871    -0.10630
H416        H  0.42461403  0.80358426  0.18673954     0.09060
H417        H  0.38311849  0.70427693  0.99889694     0.06590
H418        H  0.42458016  0.80360442  0.05874828     0.06430
C419        C  0.38072089  0.56889743  0.25159262     0.03470
C420        C  0.37041144  0.57750074  0.21665279    -0.12680
C421        C  0.34871105  0.59333488  0.21553798     0.00970
C422        C  0.33710993  0.60037443  0.24947710    -0.11210
C423        C  0.34882459  0.59371255  0.03443510     0.03460
C424        C  0.37045751  0.57784235  0.03542710    -0.10630
H425        H  0.38035566  0.57312510  0.19046595     0.09060
H426        H  0.32209724  0.61455894  0.24866991     0.06590
H427        H  0.38003386  0.57332066  0.06246001     0.06430
Fe428      Fe  0.32552190  0.70737449  0.12238476     1.65780
Fe429      Fe  0.38255973  0.67307843  0.12438509     1.73250
Fe430      Fe  0.29251482  0.61621840  0.12307268     1.54410
O431        O  0.26633606  0.62696444  0.16440625    -0.81330
O432        O  0.37207821  0.63588493  0.08293589    -0.79640
O433        O  0.28801741  0.68618224  0.16462514    -0.83840
O434        O  0.28832871  0.68677690  0.07888634    -0.78700
O435        O  0.31361017  0.59906510  0.16666583    -0.80470
O436        O  0.39880784  0.71077787  0.08108879    -0.83210
C437        C  0.26817682  0.65570537  0.06595466     0.97550
C438        C  0.26800829  0.65500105  0.17778517     1.04990
O439        O  0.33352735  0.66555243  0.12330045    -1.12200
O440        O  0.39894956  0.71091746  0.16688447    -0.74630
O441        O  0.36205676  0.73335349  0.16486958    -0.78120
O442        O  0.26628690  0.62751902  0.08035932    -0.78810
C443        C  0.38806236  0.73136296  0.17932924     0.96450
O444        O  0.36235701  0.73374133  0.08089918    -0.76760
O445        O  0.37208664  0.63593191  0.16687457    -0.81960
C446        C  0.34445666  0.61012526  0.06856388     0.99080
C447        C  0.34447501  0.60976882  0.18041460     1.04990
O448        O  0.31351811  0.59962659  0.08078992    -0.77600
C449        C  0.38811053  0.73147260  0.06751678     1.03290
C450        C  0.19186439  0.62122030  0.24587863     0.03470
C451        C  0.21088328  0.63181086  0.03045735    -0.12680
C452        C  0.24794704  0.65192151  0.03085595     0.00970
C453        C  0.26617273  0.66250729  0.24659560    -0.11210
C454        C  0.24774378  0.65099149  0.21203671     0.03460
C455        C  0.21067055  0.63015970  0.21172752    -0.10630
H456        H  0.19699727  0.62350795  0.05712638     0.09060
H457        H  0.29495002  0.67664708  0.24694993     0.06590
H458        H  0.19661265  0.61997038  0.18508887     0.06430
C459        C  0.09324729  0.57895299  0.22096581    -0.11930
C460        C  0.07885990  0.54921577  0.24569649     0.05080
C461        C  0.10167947  0.54448239  0.02150527    -0.07210
C462        C  0.13825390  0.56780955  0.02017716    -0.07960
C463        C  0.15272736  0.59767717  0.24574615    -0.02510
C464        C  0.12974249  0.60393347  0.22151585     0.04310
N465        N  0.14256553  0.63607564  0.19882354     0.66810
H466        H  0.07577244  0.58328202  0.20187633     0.15710
H467        H  0.15549124  0.56310062  0.03926741     0.15420
N468        N  0.08799375  0.51793007  0.05111742     0.74520
O469        O  0.12708464  0.63582306  0.16800280    -0.38930
O470        O  0.16614652  0.66572700  0.21183703    -0.38880
O471        O  0.10420839  0.00124044  0.06084179    -0.39580
O472        O  0.06375645  0.51597203  0.07199227    -0.39650
C473        C  0.47643810  0.86843824  0.01597405    -0.11930
C474        C  0.44375711  0.84762514  0.99758051     0.05080
C475        C  0.42628125  0.86463346  0.22982464    -0.07210
C476        C  0.44276219  0.90220816  0.22987059    -0.07960
C477        C  0.47514192  0.92325655  0.99921391    -0.02510
C478        C  0.99191786  0.90579723  0.01767082     0.04310
N479        N  0.02323491  0.92507469  0.04047878     0.66810
H480        H  0.98953147  0.85536942  0.03018781     0.15710
H481        H  0.42961596  0.91509066  0.21546569     0.15420
N482        N  0.39130724  0.84435992  0.21330494     0.74520
O483        O  0.02231520  0.94193114  0.06898893    -0.38930
O484        O  0.04916211  0.91966007  0.28665637    -0.38880
O485        O  0.36840208  0.81575716  0.97893389    -0.39580
O486        O  0.38170720  0.85740151  0.18614905    -0.39650
C487        C  0.42202125  0.01014012  0.23344807    -0.11890
C488        C  0.45429860  0.52827395  0.25377039     0.05080
C489        C  0.46150185  0.55928187  0.02441430    -0.07210
C490        C  0.43708245  0.57188257  0.02284386    -0.07960
C491        C  0.40484380  0.55353875  0.25278203    -0.02510
C492        C  0.39675583  0.52167901  0.23355035     0.04310
N493        N  0.36281347  0.00013373  0.21524837     0.66810
H494        H  0.41617913  0.98636028  0.21762115     0.15710
H495        H  0.44306965  0.59606657  0.03798593     0.15420
N496        N  0.49259396  0.57758147  0.04812673     0.74520
O497        O  0.35995400  0.98019229  0.18792911    -0.38930
O498        O  0.33493771  0.99720536  0.97938782    -0.38880
O499        O  0.00817053  0.61130022  0.30066718    -0.39580
O500        O  0.50196441  0.56001879  0.07005586    -0.39650
C501        C  0.47980163  0.51434454  0.50213480     0.03470
C502        C  0.01622074  0.53754828  0.49703999    -0.12680
C503        C  0.03994737  0.52413337  0.49540104     0.00970
C504        C  0.02651979  0.98680934  0.24508736    -0.11210
C505        C  0.49011154  0.96301352  0.24993360     0.03460
C506        C  0.46729770  0.97727922  0.25451133    -0.10630
H507        H  0.02630235  0.56619140  0.49523633     0.09060
H508        H  0.04458855  0.97649747  0.24112414     0.06590
H509        H  0.43946901  0.95934895  0.25986282     0.06430
C510        C  0.42845383  0.80824089  0.24775119     0.03470
C511        C  0.42001589  0.78930988  0.46353174    -0.12680
C512        C  0.40421833  0.75185223  0.46391760     0.00970
C513        C  0.39726673  0.73335891  0.24860745    -0.11210
C514        C  0.40420335  0.75189114  0.28282033     0.03460
C515        C  0.42012538  0.78932861  0.28234869    -0.10630
H516        H  0.42461587  0.80358455  0.43674001     0.09060
H517        H  0.38312062  0.70427659  0.24889650     0.06590
H518        H  0.42458131  0.80360385  0.30874871     0.06430
C519        C  0.38072165  0.56889712  0.50159377     0.03470
C520        C  0.37041267  0.57750055  0.46665374    -0.12680
C521        C  0.34871268  0.59333510  0.46553848     0.00970
C522        C  0.33711142  0.60037492  0.49947736    -0.11210
C523        C  0.34882826  0.59371396  0.28443449     0.03460
C524        C  0.37046279  0.57784545  0.28542594    -0.10630
H525        H  0.38035707  0.57312479  0.44046708     0.09060
H526        H  0.32209904  0.61455974  0.49866981     0.06590
H527        H  0.38003957  0.57332428  0.31245775     0.06430
Fe528      Fe  0.32552390  0.70737432  0.37238497     1.65780
Fe529      Fe  0.38256207  0.67307868  0.37438565     1.73250
Fe530      Fe  0.29251723  0.61621834  0.37307215     1.54410
O531        O  0.26633880  0.62696364  0.41440672    -0.81330
O532        O  0.37208096  0.63588406  0.33293767    -0.79640
O533        O  0.28801822  0.68618122  0.41462418    -0.83840
O534        O  0.28833183  0.68677736  0.32888576    -0.78700
O535        O  0.31361291  0.59906424  0.41666432    -0.80470
O536        O  0.39880940  0.71077672  0.33108802    -0.83210
C537        C  0.26817902  0.65570577  0.31595485     0.97550
C538        C  0.26800991  0.65500005  0.42778479     1.04990
O539        O  0.33352959  0.66555243  0.37330060    -1.12200
O540        O  0.39895228  0.71091898  0.41688391    -0.74630
O541        O  0.36205752  0.73335263  0.41487084    -0.78120
O542        O  0.26628846  0.62751930  0.33035997    -0.78810
C543        C  0.38806402  0.73136329  0.42932962     0.96450
O544        O  0.36236001  0.73374188  0.33090034    -0.76760
O545        O  0.37208897  0.63593348  0.41687646    -0.81960
C546        C  0.34445954  0.61012574  0.31856373     0.99080
C547        C  0.34447734  0.60976920  0.43041491     1.04990
O548        O  0.31352059  0.59962793  0.33078810    -0.77600
C549        C  0.38811260  0.73147214  0.31751680     1.03290
C550        C  0.19186541  0.62121994  0.49587752     0.03470
C551        C  0.21088531  0.63181004  0.28045769    -0.12680
C552        C  0.24794896  0.65192196  0.28085648     0.00970
C553        C  0.26617377  0.66250658  0.49659500    -0.11210
C554        C  0.24774506  0.65099049  0.46203604     0.03460
C555        C  0.21067180  0.63015885  0.46172655    -0.10630
H556        H  0.19699905  0.62350590  0.30712725     0.09060
H557        H  0.29495106  0.67664624  0.49694959     0.06590
H558        H  0.19661407  0.61996932  0.43508787     0.06430
C559        C  0.09324824  0.57895280  0.47096491    -0.11930
C560        C  0.07886085  0.54921592  0.49569604     0.05080
C561        C  0.10168194  0.54448048  0.27150419    -0.07210
C562        C  0.13825685  0.56780786  0.27017705    -0.07960
C563        C  0.15272837  0.59767689  0.49574501    -0.02510
C564        C  0.12974352  0.60393308  0.47151457     0.04310
N565        N  0.14256665  0.63607496  0.44882175     0.66810
H566        H  0.07577337  0.58328172  0.45187541     0.15710
H567        H  0.15549178  0.56309971  0.28926469     0.15420
N568        N  0.08799657  0.51792785  0.30111615     0.74520
O569        O  0.12708552  0.63582213  0.41800110    -0.38930
O570        O  0.16614802  0.66572641  0.46183469    -0.38880
O571        O  0.10421046  0.00123728  0.31083908    -0.39580
O572        O  0.06376049  0.51597088  0.32199244    -0.39650
C573        C  0.47643840  0.86843739  0.26597598    -0.11930
C574        C  0.44375770  0.84762477  0.24758100     0.05080
C575        C  0.42628224  0.86463359  0.47982525    -0.07210
C576        C  0.44276316  0.90220829  0.47987106    -0.07960
C577        C  0.47514271  0.92325605  0.24921511    -0.02510
C578        C  0.99191762  0.90579659  0.26767343     0.04310
N579        N  0.02323364  0.92507362  0.29048320     0.66810
H580        H  0.98952978  0.85536958  0.28018961     0.15710
H581        H  0.42961684  0.91509072  0.46546635     0.15420
N582        N  0.39130812  0.84435998  0.46330584     0.74520
O583        O  0.02231299  0.94193146  0.31899170    -0.38930
O584        O  0.04916372  0.91966063  0.53665541    -0.38880
O585        O  0.36840314  0.81575694  0.22893244    -0.39580
O586        O  0.38170776  0.85740159  0.43615025    -0.39650
C587        C  0.42202215  0.01014002  0.48344902    -0.11890
C588        C  0.45429953  0.52827394  0.50377124     0.05080
C589        C  0.46150689  0.55928485  0.27441185    -0.07210
C590        C  0.43708781  0.57188520  0.27284063    -0.07960
C591        C  0.40484445  0.55353833  0.50278348    -0.02510
C592        C  0.39675654  0.52167867  0.48355169     0.04310
N593        N  0.36281431  0.00013351  0.46524943     0.66810
H594        H  0.41618013  0.98636028  0.46762187     0.15710
H595        H  0.44307682  0.59607445  0.28798564     0.15420
N596        N  0.49259931  0.57758397  0.29812363     0.74520
O597        O  0.35995496  0.98019232  0.43792998    -0.38930
O598        O  0.33494264  0.99720901  0.22938568    -0.38880
O599        O  0.00817136  0.61130030  0.55066795    -0.39580
O600        O  0.50196923  0.56002158  0.32005352    -0.39650
C601        C  0.47980028  0.51434415  0.75213559     0.03470
C602        C  0.01621935  0.53754778  0.74704027    -0.12680
C603        C  0.03994584  0.52413272  0.74540080     0.00970
C604        C  0.02652082  0.98680957  0.49508703    -0.11210
C605        C  0.49011265  0.96301371  0.49993369     0.03460
C606        C  0.46729882  0.97727936  0.50451184    -0.10630
H607        H  0.02630104  0.56619092  0.74523660     0.09060
H608        H  0.04458956  0.97649776  0.49112354     0.06590
H609        H  0.43947019  0.95934905  0.50986362     0.06430
C610        C  0.42845503  0.80824111  0.49775166     0.03470
C611        C  0.42001466  0.78930956  0.71353257    -0.12680
C612        C  0.40421728  0.75185193  0.71391821     0.00970
C613        C  0.39726769  0.73335913  0.49860794    -0.11210
C614        C  0.40420399  0.75189134  0.53282080     0.03460
C615        C  0.42012615  0.78932882  0.53234916    -0.10630
H616        H  0.42461500  0.80358439  0.68674090     0.09060
H617        H  0.38312148  0.70427681  0.49889695     0.06590
H618        H  0.42458183  0.80360406  0.55874914     0.06430
C619        C  0.38072068  0.56889720  0.75159486     0.03470
C620        C  0.37041222  0.57750086  0.71665465    -0.12680
C621        C  0.34871186  0.59333498  0.71553896     0.00970
C622        C  0.33710960  0.60037406  0.74947757    -0.11210
C623        C  0.34882911  0.59371413  0.53443500     0.03460
C624        C  0.37046335  0.57784527  0.53542689    -0.10630
H625        H  0.38035718  0.57312547  0.69046819     0.09060
H626        H  0.32209685  0.61455850  0.74866968     0.06590
H627        H  0.38003978  0.57332397  0.56245885     0.06430
Fe628      Fe  0.32552377  0.70737429  0.62238480     1.65780
Fe629      Fe  0.38256204  0.67307875  0.62438620     1.73250
Fe630      Fe  0.29251722  0.61621833  0.62307203     1.54410
O631        O  0.26633813  0.62696360  0.66440599    -0.81330
O632        O  0.37208140  0.63588455  0.58293791    -0.79640
O633        O  0.28801801  0.68618124  0.66462400    -0.83840
O634        O  0.28833176  0.68677719  0.57888555    -0.78700
O635        O  0.31361242  0.59906443  0.66666474    -0.80470
O636        O  0.39880986  0.71077719  0.58108892    -0.83210
C637        C  0.26817943  0.65570564  0.56595430     0.97550
C638        C  0.26800931  0.65500000  0.67778424     1.04990
O639        O  0.33352953  0.66555244  0.62330068    -1.12200
O640        O  0.39895165  0.71091862  0.66688481    -0.74630
O641        O  0.36205732  0.73335278  0.66487067    -0.78120
O642        O  0.26628906  0.62751922  0.58035926    -0.78810
C643        C  0.38806346  0.73136315  0.67933004     0.96450
O644        O  0.36235992  0.73374172  0.58090015    -0.76760
O645        O  0.37208858  0.63593314  0.66687672    -0.81960
C646        C  0.34446014  0.61012593  0.56856411     0.99080
C647        C  0.34447680  0.60976912  0.68041529     1.04990
O648        O  0.31352113  0.59962779  0.58078855    -0.77600
C649        C  0.38811290  0.73147231  0.56751719     1.03290
C650        C  0.19186391  0.62121946  0.74587601     0.03470
C651        C  0.21088609  0.63181010  0.53045667    -0.12680
C652        C  0.24794973  0.65192181  0.53085571     0.00970
C653        C  0.26617226  0.66250654  0.74659444    -0.11210
C654        C  0.24774398  0.65099030  0.71203523     0.03460
C655        C  0.21067070  0.63015845  0.71172529    -0.10630
H656        H  0.19699964  0.62350635  0.55712615     0.09060
H657        H  0.29494955  0.67664635  0.74694943     0.06590
H658        H  0.19661327  0.61996882  0.68508648     0.06430
C659        C  0.09324654  0.57895182  0.72096370    -0.11930
C660        C  0.07885936  0.54921513  0.74569511     0.05080
C661        C  0.10168290  0.54448077  0.52150384    -0.07210
C662        C  0.13825783  0.56780790  0.52017635    -0.07960
C663        C  0.15272691  0.59767606  0.74574323    -0.02510
C664        C  0.12974186  0.60393206  0.72151288     0.04310
N665        N  0.14256481  0.63607371  0.69881971     0.66810
H666        H  0.07577149  0.58328064  0.70187441     0.15710
H667        H  0.15549274  0.56309987  0.53926409     0.15420
N668        N  0.08799754  0.51792857  0.55111624     0.74520
O669        O  0.12708343  0.63582056  0.66799914    -0.38930
O670        O  0.16614625  0.66572530  0.71183227    -0.38880
O671        O  0.10421148  0.00123807  0.56083943    -0.39580
O672        O  0.06376142  0.51597188  0.57199229    -0.39650
C673        C  0.47643972  0.86843767  0.51597607    -0.11930
C674        C  0.44375887  0.84762499  0.49758141     0.05080
C675        C  0.42628048  0.86463306  0.72982614    -0.07210
C676        C  0.44276141  0.90220776  0.72987196    -0.07960
C677        C  0.47514386  0.92325626  0.49921526    -0.02510
C678        C  0.99191895  0.90579689  0.51767335     0.04310
N679        N  0.02323522  0.92507404  0.54048273     0.66810
H680        H  0.98953120  0.85536994  0.53018952     0.15710
H681        H  0.42961516  0.91509023  0.71546713     0.15420
N682        N  0.39130649  0.84435946  0.71330639     0.74520
O683        O  0.02231486  0.94193193  0.56899133    -0.38930
O684        O  0.04916160  0.91965966  0.78665708    -0.38880
O685        O  0.36840424  0.81575687  0.47893333    -0.39580
O686        O  0.38170637  0.85740109  0.68615060    -0.39650
C687        C  0.42202084  0.01013987  0.73345017    -0.11890
C688        C  0.45429826  0.52827364  0.75377232     0.05080
C689        C  0.46150778  0.55928475  0.52441283    -0.07210
C690        C  0.43708851  0.57188487  0.52284195    -0.07960
C691        C  0.40484333  0.55353823  0.75278488    -0.02510
C692        C  0.39675539  0.52167867  0.73355285     0.04310
N693        N  0.36281310  0.00013363  0.71525063     0.66810
H694        H  0.41617872  0.98636013  0.71762296     0.15710
H695        H  0.44307749  0.59607412  0.53798701     0.15420
N696        N  0.49260039  0.57758406  0.54812430     0.74520
O697        O  0.35995374  0.98019265  0.68793096    -0.38930
O698        O  0.33494342  0.99720866  0.47938673    -0.38880
O699        O  0.00817017  0.61129976  0.80066952    -0.39580
O700        O  0.50197074  0.56002183  0.57005390    -0.39650
C701        C  0.47979749  0.51434350  0.00213540     0.03470
C702        C  0.01621668  0.53754863  0.99704097    -0.12680
C703        C  0.03994399  0.52413424  0.99540149     0.00970
C704        C  0.02651911  0.98680884  0.74508718    -0.11210
C705        C  0.49011099  0.96301317  0.74993441     0.03460
C706        C  0.46729733  0.97727898  0.75451278    -0.10630
H707        H  0.02629696  0.56618967  0.99523822     0.09060
H708        H  0.04458769  0.97649684  0.74112352     0.06590
H709        H  0.43946874  0.95934877  0.75986484     0.06430
C710        C  0.42845318  0.80824057  0.74775260     0.03470
C711        C  0.42001335  0.78930974  0.96353129    -0.12680
C712        C  0.40421542  0.75185211  0.96391736     0.00970
C713        C  0.39726621  0.73335862  0.74860844    -0.11210
C714        C  0.40420176  0.75189057  0.78282137     0.03460
C715        C  0.42012375  0.78932806  0.78234996    -0.10630
H716        H  0.42461327  0.80358446  0.93673901     0.09060
H717        H  0.38312018  0.70427630  0.74889723     0.06590
H718        H  0.42457898  0.80360312  0.80874999     0.06430
C719        C  0.38071558  0.56889370  0.00159438     0.03470
C720        C  0.37040721  0.57749748  0.96665395    -0.12680
C721        C  0.34870826  0.59333333  0.96553871     0.00970
C722        C  0.33710756  0.60037396  0.99947739    -0.11210
C723        C  0.34882686  0.59371323  0.78443545     0.03460
C724        C  0.37046161  0.57784489  0.78542777    -0.10630
H725        H  0.38035112  0.57312153  0.94046835     0.09060
H726        H  0.32209614  0.61455987  0.99866973     0.06590
H727        H  0.38003770  0.57332349  0.81245989     0.06430
Fe728      Fe  0.32552097  0.70737347  0.87238495     1.65780
Fe729      Fe  0.38255906  0.67307772  0.87438657     1.73250
Fe730      Fe  0.29251420  0.61621745  0.87307176     1.54410
O731        O  0.26633601  0.62696234  0.91440721    -0.81330
O732        O  0.37207832  0.63588208  0.83293984    -0.79640
O733        O  0.28801389  0.68617973  0.91462305    -0.83840
O734        O  0.28833042  0.68677718  0.82888437    -0.78700
O735        O  0.31360976  0.59906235  0.91666312    -0.80470
O736        O  0.39880624  0.71077473  0.83108803    -0.83210
C737        C  0.26817706  0.65570555  0.81595394     0.97550
C738        C  0.26800633  0.65499869  0.92778453     1.04990
O739        O  0.33352661  0.66555153  0.87330085    -1.12200
O740        O  0.39894959  0.71091922  0.91688355    -0.74630
O741        O  0.36205336  0.73335111  0.91487189    -0.78120
O742        O  0.26628534  0.62751892  0.83036008    -0.78810
C743        C  0.38806073  0.73136284  0.92932977     0.96450
O744        O  0.36235853  0.73374188  0.83090161    -0.76760
O745        O  0.37208554  0.63593343  0.91687841    -0.81960
C746        C  0.34445710  0.61012473  0.81856439     0.99080
C747        C  0.34447381  0.60976802  0.93041519     1.04990
O748        O  0.31351772  0.59962784  0.83078699    -0.77600
C749        C  0.38811048  0.73147124  0.81751755     1.03290
C750        C  0.19186223  0.62122087  0.99587820     0.03470
C751        C  0.21088419  0.63180980  0.78045538    -0.12680
C752        C  0.24794780  0.65192169  0.78085495     0.00970
C753        C  0.26617085  0.66250520  0.99659503    -0.11210
C754        C  0.24774175  0.65098945  0.96203611     0.03460
C755        C  0.21066839  0.63015903  0.96172718    -0.10630
H756        H  0.19699742  0.62350600  0.80712468     0.09060
H757        H  0.29494806  0.67664398  0.99694934     0.06590
H758        H  0.19660986  0.61996948  0.93508789     0.06430
C759        C  0.09324522  0.57895489  0.97096732    -0.11930
C760        C  0.07885726  0.54921768  0.99569718     0.05080
C761        C  0.10168167  0.54448003  0.77150255    -0.07210
C762        C  0.13825658  0.56780713  0.77017465    -0.07960
C763        C  0.15272512  0.59767844  0.99574648    -0.02510
C764        C  0.12973999  0.60393526  0.97151640     0.04310
N765        N  0.14256347  0.63607766  0.94882458     0.66810
H766        H  0.07576768  0.58328473  0.95187518     0.15710
H767        H  0.15549163  0.56309921  0.78926224     0.15420
N768        N  0.08799663  0.51792796  0.80111510     0.74520
O769        O  0.12708120  0.63582590  0.91800489    -0.38930
O770        O  0.16614593  0.66572847  0.96183725    -0.38880
O771        O  0.10421048  0.00123733  0.81083801    -0.39580
O772        O  0.06376098  0.51597160  0.82199169    -0.39650
C773        C  0.47643773  0.86843709  0.76597736    -0.11930
C774        C  0.44375698  0.84762443  0.74758251     0.05080
C775        C  0.42628013  0.86463376  0.97982454    -0.07210
C776        C  0.44276128  0.90220813  0.97987049    -0.07960
C777        C  0.47514206  0.92325570  0.74921622    -0.02510
C778        C  0.99191705  0.90579631  0.76767450     0.04310
N779        N  0.02323331  0.92507350  0.79048388     0.66810
H780        H  0.98952914  0.85536931  0.78019092     0.15710
H781        H  0.42961328  0.91509170  0.96546468     0.15420
N782        N  0.39130580  0.84435988  0.96330589     0.74520
O783        O  0.02231314  0.94193201  0.81899202    -0.38930
O784        O  0.04916408  0.91966275  0.03664836    -0.38880
O785        O  0.36840251  0.81575627  0.72893365    -0.39580
O786        O  0.38170517  0.85740124  0.93615012    -0.39650
C787        C  0.42201692  0.01013657  0.98344954    -0.11890
C788        C  0.45429462  0.52827211  0.00377241     0.05080
C789        C  0.46150657  0.55928435  0.77441417    -0.07210
C790        C  0.43708732  0.57188453  0.77284352    -0.07960
C791        C  0.40483838  0.55353478  0.00278426    -0.02510
C792        C  0.39675108  0.52167571  0.98355277     0.04310
N793        N  0.36280861  0.00012931  0.96525095     0.66810
H794        H  0.41617662  0.98636202  0.96762574     0.15710
H795        H  0.44307630  0.59607371  0.78798877     0.15420
N796        N  0.49259927  0.57758351  0.79812556     0.74520
O797        O  0.35994895  0.98018681  0.93793308    -0.38930
O798        O  0.33494222  0.99720877  0.72938798    -0.38880
O799        O  0.00816387  0.61129735  0.05067189    -0.39580
O800        O  0.50196985  0.56002114  0.82005466    -0.39650
C801        C  0.97980061  0.01434441  0.25213428     0.03470
C802        C  0.51621977  0.03754810  0.24703986    -0.12680
C803        C  0.53994641  0.02413317  0.24540125     0.00970
C804        C  0.52651807  0.48681074  0.99508655    -0.11210
C805        C  0.99011022  0.46301386  0.99993291     0.03460
C806        C  0.96729573  0.47727871  0.00451174    -0.10630
H807        H  0.52630141  0.06619121  0.24523623     0.09060
H808        H  0.54458839  0.47649911  0.99112236     0.06590
H809        H  0.93946686  0.45934749  0.00986361     0.06430
C810        C  0.92845303  0.30824126  0.99775092     0.03470
C811        C  0.92001432  0.28930962  0.21353126    -0.12680
C812        C  0.90421683  0.25185198  0.21391713     0.00970
C813        C  0.89726491  0.23335920  0.99860776    -0.11210
C814        C  0.90420166  0.25189162  0.03282044     0.03460
C815        C  0.92012424  0.28932920  0.03234867    -0.10630
H816        H  0.92461403  0.30358427  0.18673953     0.09060
H817        H  0.88311848  0.20427692  0.99889695     0.06590
H818        H  0.92458020  0.30360445  0.05874823     0.06430
C819        C  0.88072089  0.06889744  0.25159263     0.03470
C820        C  0.87041144  0.07750075  0.21665279    -0.12680
C821        C  0.84871106  0.09333490  0.21553798     0.00970
C822        C  0.83710995  0.10037445  0.24947710    -0.11210
C823        C  0.84882459  0.09371256  0.03443510     0.03460
C824        C  0.87045752  0.07784236  0.03542711    -0.10630
H825        H  0.88035566  0.07312510  0.19046596     0.09060
H826        H  0.82209727  0.11455897  0.24866991     0.06590
H827        H  0.88003386  0.07332067  0.06246002     0.06430
Fe828      Fe  0.82552190  0.20737450  0.12238475     1.65780
Fe829      Fe  0.88255974  0.17307844  0.12438508     1.73250
Fe830      Fe  0.79251483  0.11621841  0.12307268     1.54410
O831        O  0.76633607  0.12696444  0.16440626    -0.81330
O832        O  0.87207822  0.13588494  0.08293589    -0.79640
O833        O  0.78801740  0.18618224  0.16462514    -0.83840
O834        O  0.78832872  0.18677691  0.07888633    -0.78700
O835        O  0.81361019  0.09906511  0.16666582    -0.80470
O836        O  0.89880785  0.21077789  0.08108878    -0.83210
C837        C  0.76817682  0.15570538  0.06595466     0.97550
C838        C  0.76800830  0.15500105  0.17778517     1.04990
O839        O  0.83352736  0.16555244  0.12330045    -1.12200
O840        O  0.89894957  0.21091748  0.16688446    -0.74630
O841        O  0.86205676  0.23335350  0.16486958    -0.78120
O842        O  0.76628690  0.12751903  0.08035933    -0.78810
C843        C  0.88806236  0.23136297  0.17932923     0.96450
O844        O  0.86235703  0.23374136  0.08089918    -0.76760
O845        O  0.87208665  0.13593193  0.16687457    -0.81960
C846        C  0.84445667  0.11012527  0.06856387     0.99080
C847        C  0.84447502  0.10976884  0.18041460     1.04990
O848        O  0.81351812  0.09962661  0.08078991    -0.77600
C849        C  0.88811054  0.23147262  0.06751678     1.03290
C850        C  0.69186439  0.12122029  0.24587864     0.03470
C851        C  0.71088328  0.13181084  0.03045736    -0.12680
C852        C  0.74794704  0.15192150  0.03085595     0.00970
C853        C  0.76617274  0.16250729  0.24659560    -0.11210
C854        C  0.74774378  0.15099150  0.21203671     0.03460
C855        C  0.71067055  0.13015970  0.21172752    -0.10630
H856        H  0.69699729  0.12350795  0.05712639     0.09060
H857        H  0.79495003  0.17664709  0.24694993     0.06590
H858        H  0.69661266  0.11997037  0.18508887     0.06430
C859        C  0.59324729  0.07895297  0.22096581    -0.11930
C860        C  0.57885990  0.04921577  0.24569650     0.05080
C861        C  0.60167946  0.04448239  0.02150541    -0.07210
C862        C  0.63825389  0.06780954  0.02017726    -0.07960
C863        C  0.65272736  0.09767716  0.24574616    -0.02510
C864        C  0.62974248  0.10393345  0.22151585     0.04310
N865        N  0.64256553  0.13607562  0.19882354     0.66810
H866        H  0.57577244  0.08328201  0.20187633     0.15710
H867        H  0.65549125  0.06310065  0.03926759     0.15420
N868        N  0.58799373  0.01793017  0.05111764     0.74520
O869        O  0.62708464  0.13582304  0.16800279    -0.38930
O870        O  0.66614651  0.16572699  0.21183702    -0.38880
O871        O  0.60420839  0.50124043  0.06084180    -0.39580
O872        O  0.56375651  0.01597229  0.07199252    -0.39650
C873        C  0.97643826  0.36843825  0.01597364    -0.11930
C874        C  0.94375712  0.34762512  0.99758040     0.05080
C875        C  0.92628125  0.36463347  0.22982464    -0.07210
C876        C  0.94276219  0.40220816  0.22987058    -0.07960
C877        C  0.97514199  0.42325654  0.99921365    -0.02510
C878        C  0.49191785  0.40579722  0.01767082     0.04310
N879        N  0.52323491  0.42507469  0.04047878     0.66810
H880        H  0.48953146  0.35536942  0.03018781     0.15710
H881        H  0.92961596  0.41509066  0.21546569     0.15420
N882        N  0.89130723  0.34435993  0.21330496     0.74520
O883        O  0.52231520  0.44193114  0.06898893    -0.38930
O884        O  0.54916213  0.41966008  0.28665628    -0.38880
O885        O  0.86840199  0.31575705  0.97893437    -0.39580
O886        O  0.88170719  0.35740152  0.18614907    -0.39650
C887        C  0.92202126  0.51014013  0.23344806    -0.11890
C888        C  0.95429859  0.02827395  0.25377040     0.05080
C889        C  0.96150185  0.05928186  0.02441431    -0.07210
C890        C  0.93708245  0.07188257  0.02284387    -0.07960
C891        C  0.90484380  0.05353875  0.25278204    -0.02510
C892        C  0.89675582  0.02167901  0.23355037     0.04310
N893        N  0.86281349  0.50013375  0.21524834     0.66810
H894        H  0.91617915  0.48636029  0.21762113     0.15710
H895        H  0.94306965  0.09606656  0.03798595     0.15420
N896        N  0.99259396  0.07758147  0.04812674     0.74520
O897        O  0.85995403  0.48019233  0.18792907    -0.38930
O898        O  0.83493781  0.49720541  0.97938740    -0.38880
O899        O  0.50817054  0.11130024  0.30066715    -0.39580
O900        O  0.00196441  0.06001878  0.07005586    -0.39650
C901        C  0.97980164  0.01434453  0.50213480     0.03470
C902        C  0.51622073  0.03754829  0.49704000    -0.12680
C903        C  0.53994738  0.02413340  0.49540094     0.00970
C904        C  0.52651980  0.48680934  0.24508733    -0.11210
C905        C  0.99011155  0.46301352  0.24993358     0.03460
C906        C  0.96729771  0.47727923  0.25451132    -0.10630
H907        H  0.52630233  0.06619142  0.49523645     0.09060
H908        H  0.54458855  0.47649748  0.24112410     0.06590
H909        H  0.93946902  0.45934896  0.25986282     0.06430
C910        C  0.92845383  0.30824090  0.24775118     0.03470
C911        C  0.92001591  0.28930991  0.46353177    -0.12680
C912        C  0.90421834  0.25185225  0.46391761     0.00970
C913        C  0.89726673  0.23335892  0.24860745    -0.11210
C914        C  0.90420336  0.25189115  0.28282032     0.03460
C915        C  0.92012539  0.28932863  0.28234868    -0.10630
H916        H  0.92461592  0.30358459  0.43674004     0.09060
H917        H  0.88312062  0.20427660  0.24889650     0.06590
H918        H  0.92458132  0.30360387  0.30874870     0.06430
C919        C  0.88072167  0.06889712  0.50159379     0.03470
C920        C  0.87041272  0.07750058  0.46665375    -0.12680
C921        C  0.84871272  0.09333513  0.46553849     0.00970
C922        C  0.83711144  0.10037492  0.49947737    -0.11210
C923        C  0.84882827  0.09371398  0.28443449     0.03460
C924        C  0.87046280  0.07784547  0.28542595    -0.10630
H925        H  0.88035713  0.07312485  0.44046709     0.09060
H926        H  0.82209906  0.11455975  0.49866981     0.06590
H927        H  0.88003958  0.07332429  0.31245775     0.06430
Fe928      Fe  0.82552391  0.20737434  0.37238497     1.65780
Fe929      Fe  0.88256209  0.17307871  0.37438565     1.73250
Fe930      Fe  0.79251725  0.11621836  0.37307217     1.54410
O931        O  0.76633883  0.12696366  0.41440674    -0.81330
O932        O  0.87208098  0.13588408  0.33293768    -0.79640
O933        O  0.78801822  0.18618124  0.41462417    -0.83840
O934        O  0.78833185  0.18677737  0.32888575    -0.78700
O935        O  0.81361294  0.09906427  0.41666433    -0.80470
O936        O  0.89880941  0.21077673  0.33108802    -0.83210
C937        C  0.76817903  0.15570578  0.31595486     0.97550
C938        C  0.76800992  0.15500007  0.42778479     1.04990
O939        O  0.83352960  0.16555245  0.37330061    -1.12200
O940        O  0.89895230  0.21091902  0.41688391    -0.74630
O941        O  0.86205752  0.23335265  0.41487085    -0.78120
O942        O  0.76628847  0.12751931  0.33035999    -0.78810
C943        C  0.88806404  0.23136332  0.42932962     0.96450
O944        O  0.86236003  0.23374190  0.33090034    -0.76760
O945        O  0.87208900  0.13593352  0.41687647    -0.81960
C946        C  0.84445956  0.11012577  0.31856373     0.99080
C947        C  0.84447737  0.10976923  0.43041492     1.04990
O948        O  0.81352061  0.09962795  0.33078811    -0.77600
C949        C  0.88811261  0.23147215  0.31751680     1.03290
C950        C  0.69186540  0.12121998  0.49587750     0.03470
C951        C  0.71088532  0.13181003  0.28045770    -0.12680
C952        C  0.74794897  0.15192196  0.28085648     0.00970
C953        C  0.76617377  0.16250657  0.49659500    -0.11210
C954        C  0.74774507  0.15099052  0.46203604     0.03460
C955        C  0.71067180  0.13015890  0.46172654    -0.10630
H956        H  0.69699905  0.12350589  0.30712726     0.09060
H957        H  0.79495106  0.17664622  0.49694960     0.06590
H958        H  0.69661407  0.11996940  0.43508786     0.06430
C959        C  0.59324823  0.07895290  0.47096492    -0.11930
C960        C  0.57886085  0.04921596  0.49569597     0.05080
C961        C  0.60168194  0.04448048  0.27150421    -0.07210
C962        C  0.63825685  0.06780786  0.27017707    -0.07960
C963        C  0.65272837  0.09767694  0.49574498    -0.02510
C964        C  0.62974352  0.10393318  0.47151460     0.04310
N965        N  0.64256665  0.13607510  0.44882185     0.66810
H966        H  0.57577338  0.08328185  0.45187548     0.15710
H967        H  0.65549177  0.06309971  0.28926471     0.15420
N968        N  0.58799657  0.01792785  0.30111618     0.74520
O969        O  0.62708550  0.13582235  0.41800125    -0.38930
O970        O  0.66614806  0.16572652  0.46183483    -0.38880
O971        O  0.60421047  0.50123727  0.31083904    -0.39580
O972        O  0.56376048  0.01597090  0.32199247    -0.39650
C973        C  0.97643841  0.36843740  0.26597594    -0.11930
C974        C  0.94375771  0.34762478  0.24758099     0.05080
C975        C  0.92628234  0.36463364  0.47982516    -0.07210
C976        C  0.94276325  0.40220834  0.47987105    -0.07960
C977        C  0.97514272  0.42325606  0.24921509    -0.02510
C978        C  0.49191763  0.40579659  0.26767339     0.04310
N979        N  0.52323366  0.42507363  0.29048314     0.66810
H980        H  0.48952979  0.35536959  0.28018957     0.15710
H981        H  0.92961700  0.41509080  0.46546620     0.15420
N982        N  0.89130831  0.34436005  0.46330550     0.74520
O983        O  0.52231302  0.44193145  0.31899166    -0.38930
O984        O  0.54916329  0.41966034  0.53665672    -0.38880
O985        O  0.86840314  0.31575695  0.22893246    -0.39580
O986        O  0.88170815  0.35740169  0.43614976    -0.39650
C987        C  0.92202210  0.51013998  0.48344913    -0.11890
C988        C  0.95429952  0.02827389  0.50377127     0.05080
C989        C  0.96150690  0.05928485  0.27441185    -0.07210
C990        C  0.93708781  0.07188521  0.27284063    -0.07960
C991        C  0.90484445  0.05353831  0.50278351    -0.02510
C992        C  0.89675661  0.02167873  0.48355157     0.04310
N993        N  0.86281418  0.50013336  0.46524973     0.66810
H994        H  0.91618003  0.48636019  0.46762209     0.15710
H995        H  0.94307682  0.09607446  0.28798563     0.15420
N996        N  0.99259932  0.07758398  0.29812362     0.74520
O997        O  0.85995471  0.48019198  0.43793042    -0.38930
O998        O  0.83494266  0.49720902  0.22938565    -0.38880
O999        O  0.50817113  0.11130000  0.55066856    -0.39580
O1000       O  0.00196924  0.06002160  0.32005353    -0.39650
C1001       C  0.97980028  0.01434415  0.75213557     0.03470
C1002       C  0.51621934  0.03754778  0.74704028    -0.12680
C1003       C  0.53994583  0.02413272  0.74540080     0.00970
C1004       C  0.52652080  0.48680953  0.49508725    -0.11210
C1005       C  0.99011262  0.46301371  0.49993388     0.03460
C1006       C  0.96729880  0.47727938  0.50451193    -0.10630
H1007       H  0.52630103  0.06619092  0.74523661     0.09060
H1008       H  0.54458953  0.47649768  0.49112388     0.06590
H1009       H  0.93947017  0.45934908  0.50986370     0.06430
C1010       C  0.92845502  0.30824113  0.49775170     0.03470
C1011       C  0.92001465  0.28930955  0.71353257    -0.12680
C1012       C  0.90421727  0.25185192  0.71391821     0.00970
C1013       C  0.89726769  0.23335914  0.49860794    -0.11210
C1014       C  0.90420397  0.25189133  0.53282081     0.03460
C1015       C  0.92012612  0.28932882  0.53234919    -0.10630
H1016       H  0.92461499  0.30358439  0.68674091     0.09060
H1017       H  0.88312147  0.20427682  0.49889694     0.06590
H1018       H  0.92458178  0.30360404  0.55874918     0.06430
C1019       C  0.88072068  0.06889720  0.75159484     0.03470
C1020       C  0.87041222  0.07750086  0.71665464    -0.12680
C1021       C  0.84871185  0.09333496  0.71553895     0.00970
C1022       C  0.83710959  0.10037404  0.74947756    -0.11210
C1023       C  0.84882911  0.09371412  0.53443501     0.03460
C1024       C  0.87046333  0.07784525  0.53542690    -0.10630
H1025       H  0.88035718  0.07312547  0.69046817     0.09060
H1026       H  0.82209684  0.11455848  0.74866968     0.06590
H1027       H  0.88003974  0.07332392  0.56245886     0.06430
Fe1028     Fe  0.82552375  0.20737427  0.62238481     1.65780
Fe1029     Fe  0.88256203  0.17307874  0.62438620     1.73250
Fe1030     Fe  0.79251721  0.11621831  0.62307203     1.54410
O1031       O  0.76633811  0.12696359  0.66440599    -0.81330
O1032       O  0.87208138  0.13588454  0.58293791    -0.79640
O1033       O  0.78801800  0.18618122  0.66462401    -0.83840
O1034       O  0.78833174  0.18677717  0.57888557    -0.78700
O1035       O  0.81361240  0.09906442  0.66666474    -0.80470
O1036       O  0.89880984  0.21077718  0.58108892    -0.83210
C1037       C  0.76817941  0.15570563  0.56595430     0.97550
C1038       C  0.76800929  0.15499998  0.67778424     1.04990
O1039       O  0.83352952  0.16555242  0.62330068    -1.12200
O1040       O  0.89895163  0.21091861  0.66688481    -0.74630
O1041       O  0.86205731  0.23335277  0.66487067    -0.78120
O1042       O  0.76628905  0.12751920  0.58035925    -0.78810
C1043       C  0.88806345  0.23136314  0.67933004     0.96450
O1044       O  0.86235990  0.23374170  0.58090015    -0.76760
O1045       O  0.87208856  0.13593313  0.66687672    -0.81960
C1046       C  0.84446013  0.11012592  0.56856411     0.99080
C1047       C  0.84447678  0.10976911  0.68041529     1.04990
O1048       O  0.81352112  0.09962778  0.58078855    -0.77600
C1049       C  0.88811288  0.23147229  0.56751719     1.03290
C1050       C  0.69186390  0.12121945  0.74587601     0.03470
C1051       C  0.71088608  0.13181011  0.53045666    -0.12680
C1052       C  0.74794972  0.15192181  0.53085571     0.00970
C1053       C  0.76617225  0.16250652  0.74659444    -0.11210
C1054       C  0.74774397  0.15099028  0.71203523     0.03460
C1055       C  0.71067068  0.13015843  0.71172529    -0.10630
H1056       H  0.69699962  0.12350635  0.55712614     0.09060
H1057       H  0.79494953  0.17664632  0.74694943     0.06590
H1058       H  0.69661326  0.11996881  0.68508649     0.06430
C1059       C  0.59324653  0.07895182  0.72096371    -0.11930
C1060       C  0.57885935  0.04921513  0.74569512     0.05080
C1061       C  0.60168290  0.04448076  0.52150373    -0.07210
C1062       C  0.63825783  0.06780790  0.52017626    -0.07960
C1063       C  0.65272690  0.09767605  0.74574323    -0.02510
C1064       C  0.62974185  0.10393205  0.72151289     0.04310
N1065       N  0.64256480  0.13607371  0.69881972     0.66810
H1066       H  0.57577148  0.08328065  0.70187442     0.15710
H1067       H  0.65549273  0.06309984  0.53926394     0.15420
N1068       N  0.58799754  0.01792848  0.55111606     0.74520
O1069       O  0.62708342  0.13582056  0.66799915    -0.38930
O1070       O  0.66614625  0.16572529  0.71183229    -0.38880
O1071       O  0.60421142  0.50123811  0.56083965    -0.39580
O1072       O  0.56376136  0.01597167  0.57199208    -0.39650
C1073       C  0.97643958  0.36843766  0.51597642    -0.11930
C1074       C  0.94375886  0.34762501  0.49758150     0.05080
C1075       C  0.92628047  0.36463306  0.72982615    -0.07210
C1076       C  0.94276141  0.40220776  0.72987197    -0.07960
C1077       C  0.97514382  0.42325627  0.49921547    -0.02510
C1078       C  0.49191879  0.40579687  0.51767378     0.04310
N1079       N  0.52323487  0.42507400  0.54048344     0.66810
H1080       H  0.48953099  0.35536990  0.53019003     0.15710
H1081       H  0.92961516  0.41509023  0.71546714     0.15420
N1082       N  0.89130648  0.34435946  0.71330641     0.74520
O1083       O  0.52231439  0.44193220  0.56899170    -0.38930
O1084       O  0.54916161  0.41965965  0.78665705    -0.38880
O1085       O  0.86840431  0.31575697  0.47893291    -0.39580
O1086       O  0.88170636  0.35740109  0.68615063    -0.39650
C1087       C  0.92202084  0.51013986  0.73345018    -0.11890
C1088       C  0.95429827  0.02827364  0.75377229     0.05080
C1089       C  0.96150770  0.05928461  0.52441302    -0.07210
C1090       C  0.93708844  0.07188474  0.52284213    -0.07960
C1091       C  0.90484333  0.05353823  0.75278485    -0.02510
C1092       C  0.89675540  0.02167868  0.73355281     0.04310
N1093       N  0.86281309  0.50013361  0.71525066     0.66810
H1094       H  0.91617871  0.48636012  0.71762298     0.15710
H1095       H  0.94307737  0.09607393  0.53798731     0.15420
N1096       N  0.99260022  0.07758378  0.54812465     0.74520
O1097       O  0.85995372  0.48019261  0.68793100    -0.38930
O1098       O  0.83494335  0.49720862  0.47938707    -0.38880
O1099       O  0.50817015  0.11129974  0.80066956    -0.39580
O1100       O  0.00197054  0.06002142  0.57005410    -0.39650
C1101       C  0.97979749  0.01434350  0.00213540     0.03470
C1102       C  0.51621668  0.03754862  0.99704093    -0.12680
C1103       C  0.53994397  0.02413420  0.99540160     0.00970
C1104       C  0.52651911  0.48680884  0.74508719    -0.11210
C1105       C  0.99011099  0.46301317  0.74993441     0.03460
C1106       C  0.96729734  0.47727898  0.75451278    -0.10630
H1107       H  0.52629698  0.06618965  0.99523805     0.09060
H1108       H  0.54458768  0.47649684  0.74112353     0.06590
H1109       H  0.93946874  0.45934877  0.75986485     0.06430
C1110       C  0.92845317  0.30824056  0.74775260     0.03470
C1111       C  0.92001333  0.28930971  0.96353125    -0.12680
C1112       C  0.90421540  0.25185208  0.96391735     0.00970
C1113       C  0.89726620  0.23335861  0.74860844    -0.11210
C1114       C  0.90420175  0.25189056  0.78282137     0.03460
C1115       C  0.92012374  0.28932805  0.78234996    -0.10630
H1116       H  0.92461323  0.30358442  0.93673897     0.09060
H1117       H  0.88312016  0.20427629  0.74889723     0.06590
H1118       H  0.92457898  0.30360311  0.80874999     0.06430
C1119       C  0.88071559  0.06889370  0.00159439     0.03470
C1120       C  0.87040721  0.07749747  0.96665396    -0.12680
C1121       C  0.84870826  0.09333332  0.96553871     0.00970
C1122       C  0.83710757  0.10037396  0.99947739    -0.11210
C1123       C  0.84882686  0.09371321  0.78443544     0.03460
C1124       C  0.87046161  0.07784487  0.78542775    -0.10630
H1125       H  0.88035112  0.07312152  0.94046835     0.09060
H1126       H  0.82209614  0.11455987  0.99866973     0.06590
H1127       H  0.88003770  0.07332348  0.81245988     0.06430
Fe1128     Fe  0.82552095  0.20737344  0.87238495     1.65780
Fe1129     Fe  0.88255905  0.17307770  0.87438656     1.73250
Fe1130     Fe  0.79251420  0.11621742  0.87307175     1.54410
O1131       O  0.76633600  0.12696230  0.91440719    -0.81330
O1132       O  0.87207831  0.13588207  0.83293983    -0.79640
O1133       O  0.78801388  0.18617969  0.91462305    -0.83840
O1134       O  0.78833040  0.18677715  0.82888437    -0.78700
O1135       O  0.81360976  0.09906233  0.91666312    -0.80470
O1136       O  0.89880623  0.21077472  0.83108803    -0.83210
C1137       C  0.76817705  0.15570552  0.81595394     0.97550
C1138       C  0.76800632  0.15499865  0.92778453     1.04990
O1139       O  0.83352660  0.16555150  0.87330084    -1.12200
O1140       O  0.89894958  0.21091918  0.91688355    -0.74630
O1141       O  0.86205334  0.23335108  0.91487188    -0.78120
O1142       O  0.76628534  0.12751889  0.83036006    -0.78810
C1143       C  0.88806071  0.23136280  0.92932976     0.96450
O1144       O  0.86235851  0.23374185  0.83090160    -0.76760
O1145       O  0.87208554  0.13593340  0.91687839    -0.81960
C1146       C  0.84445710  0.11012471  0.81856438     0.99080
C1147       C  0.84447381  0.10976800  0.93041518     1.04990
O1148       O  0.81351772  0.09962781  0.83078699    -0.77600
C1149       C  0.88811046  0.23147122  0.81751755     1.03290
C1150       C  0.69186223  0.12122081  0.99587821     0.03470
C1151       C  0.71088418  0.13180978  0.78045538    -0.12680
C1152       C  0.74794779  0.15192167  0.78085495     0.00970
C1153       C  0.76617085  0.16250519  0.99659502    -0.11210
C1154       C  0.74774174  0.15098940  0.96203611     0.03460
C1155       C  0.71066839  0.13015896  0.96172719    -0.10630
H1156       H  0.69699741  0.12350598  0.80712468     0.09060
H1157       H  0.79494805  0.17664398  0.99694934     0.06590
H1158       H  0.69660985  0.11996937  0.93508790     0.06430
C1159       C  0.59324522  0.07895476  0.97096730    -0.11930
C1160       C  0.57885725  0.04921763  0.99569725     0.05080
C1161       C  0.60168166  0.04448002  0.77150255    -0.07210
C1162       C  0.63825657  0.06780712  0.77017465    -0.07960
C1163       C  0.65272511  0.09767837  0.99574650    -0.02510
C1164       C  0.62973999  0.10393513  0.97151635     0.04310
N1165       N  0.64256347  0.13607747  0.94882444     0.66810
H1166       H  0.57576766  0.08328456  0.95187508     0.15710
H1167       H  0.65549162  0.06309919  0.78926224     0.15420
N1168       N  0.58799662  0.01792795  0.80111509     0.74520
O1169       O  0.62708122  0.13582562  0.91800469    -0.38930
O1170       O  0.66614588  0.16572832  0.96183706    -0.38880
O1171       O  0.60421047  0.50123733  0.81083803    -0.39580
O1172       O  0.56376097  0.01597159  0.82199169    -0.39650
C1173       C  0.97643773  0.36843708  0.76597737    -0.11930
C1174       C  0.94375697  0.34762443  0.74758252     0.05080
C1175       C  0.92628002  0.36463370  0.97982464    -0.07210
C1176       C  0.94276119  0.40220809  0.97987050    -0.07960
C1177       C  0.97514206  0.42325570  0.74921623    -0.02510
C1178       C  0.49191705  0.40579630  0.76767450     0.04310
N1179       N  0.52323332  0.42507350  0.79048387     0.66810
H1180       H  0.48952915  0.35536931  0.78019090     0.15710
H1181       H  0.92961310  0.41509161  0.96546485     0.15420
N1182       N  0.89130557  0.34435979  0.96330628     0.74520
O1183       O  0.52231315  0.44193200  0.81899202    -0.38930
O1184       O  0.54916408  0.41966275  0.03664835    -0.38880
O1185       O  0.86840250  0.31575627  0.72893367    -0.39580
O1186       O  0.88170471  0.35740114  0.93615068    -0.39650
C1187       C  0.92201700  0.51013664  0.98344942    -0.11890
C1188       C  0.95429462  0.02827211  0.00377242     0.05080
C1189       C  0.96150658  0.05928434  0.77441415    -0.07210
C1190       C  0.93708732  0.07188453  0.77284350    -0.07960
C1191       C  0.90483838  0.05353477  0.00278427    -0.02510
C1192       C  0.89675108  0.02167571  0.98355278     0.04310
N1193       N  0.86280879  0.50012950  0.96525058     0.66810
H1194       H  0.91617675  0.48636214  0.96762547     0.15710
H1195       H  0.94307630  0.09607370  0.78798876     0.15420
N1196       N  0.99259926  0.07758350  0.79812555     0.74520
O1197       O  0.85994928  0.48018724  0.93793253    -0.38930
O1198       O  0.83494222  0.49720877  0.72938801    -0.38880
O1199       O  0.50816415  0.11129773  0.05067110    -0.39580
O1200       O  0.00196984  0.06002112  0.82005465    -0.39650
C1201       C  0.97980061  0.51434441  0.25213427     0.03470
C1202       C  0.51621978  0.53754810  0.24703985    -0.12680
C1203       C  0.53994642  0.52413318  0.24540124     0.00970
C1204       C  0.52651804  0.98681070  0.99508680    -0.11210
C1205       C  0.99011022  0.96301386  0.99993291     0.03460
C1206       C  0.96729572  0.97727870  0.00451175    -0.10630
H1207       H  0.52630142  0.56619122  0.24523623     0.09060
H1208       H  0.54458835  0.97649902  0.99112276     0.06590
H1209       H  0.93946686  0.95934749  0.00986362     0.06430
C1210       C  0.92845303  0.80824126  0.99775092     0.03470
C1211       C  0.92001433  0.78930962  0.21353128    -0.12680
C1212       C  0.90421683  0.75185198  0.21391714     0.00970
C1213       C  0.89726490  0.73335920  0.99860777    -0.11210
C1214       C  0.90420166  0.75189162  0.03282044     0.03460
C1215       C  0.92012424  0.78932920  0.03234868    -0.10630
H1216       H  0.92461404  0.80358427  0.18673955     0.09060
H1217       H  0.88311847  0.70427692  0.99889696     0.06590
H1218       H  0.92458021  0.80360446  0.05874824     0.06430
C1219       C  0.88072090  0.56889744  0.25159263     0.03470
C1220       C  0.87041145  0.57750075  0.21665279    -0.12680
C1221       C  0.84871107  0.59333490  0.21553799     0.00970
C1222       C  0.83710995  0.60037444  0.24947710    -0.11210
C1223       C  0.84882460  0.59371256  0.03443511     0.03460
C1224       C  0.87045752  0.57784236  0.03542711    -0.10630
H1225       H  0.88035568  0.57312512  0.19046595     0.09060
H1226       H  0.82209726  0.61455896  0.24866991     0.06590
H1227       H  0.88003388  0.57332068  0.06246002     0.06430
Fe1228     Fe  0.82552191  0.70737451  0.12238476     1.65780
Fe1229     Fe  0.88255974  0.67307845  0.12438509     1.73250
Fe1230     Fe  0.79251484  0.61621841  0.12307269     1.54410
O1231       O  0.76633607  0.62696445  0.16440626    -0.81330
O1232       O  0.87207823  0.63588495  0.08293588    -0.79640
O1233       O  0.78801742  0.68618225  0.16462515    -0.83840
O1234       O  0.78832872  0.68677691  0.07888635    -0.78700
O1235       O  0.81361019  0.59906512  0.16666584    -0.80470
O1236       O  0.89880786  0.71077790  0.08108879    -0.83210
C1237       C  0.76817682  0.65570538  0.06595467     0.97550
C1238       C  0.76800830  0.65500106  0.17778517     1.04990
O1239       O  0.83352736  0.66555244  0.12330046    -1.12200
O1240       O  0.89894957  0.71091747  0.16688448    -0.74630
O1241       O  0.86205678  0.73335351  0.16486958    -0.78120
O1242       O  0.76628691  0.62751903  0.08035932    -0.78810
C1243       C  0.88806237  0.73136297  0.17932924     0.96450
O1244       O  0.86235702  0.73374135  0.08089917    -0.76760
O1245       O  0.87208666  0.63593192  0.16687457    -0.81960
C1246       C  0.84445668  0.61012528  0.06856388     0.99080
C1247       C  0.84447502  0.60976884  0.18041461     1.04990
O1248       O  0.81351812  0.59962660  0.08078993    -0.77600
C1249       C  0.88811054  0.73147263  0.06751678     1.03290
C1250       C  0.69186439  0.62122029  0.24587864     0.03470
C1251       C  0.71088328  0.63181086  0.03045736    -0.12680
C1252       C  0.74794704  0.65192151  0.03085596     0.00970
C1253       C  0.76617274  0.66250730  0.24659560    -0.11210
C1254       C  0.74774379  0.65099150  0.21203672     0.03460
C1255       C  0.71067055  0.63015970  0.21172752    -0.10630
H1256       H  0.69699728  0.62350795  0.05712640     0.09060
H1257       H  0.79495003  0.67664709  0.24694994     0.06590
H1258       H  0.69661266  0.61997038  0.18508887     0.06430
C1259       C  0.59324729  0.57895298  0.22096581    -0.11930
C1260       C  0.57885990  0.54921577  0.24569650     0.05080
C1261       C  0.60167946  0.54448238  0.02150529    -0.07210
C1262       C  0.63825389  0.56780955  0.02017718    -0.07960
C1263       C  0.65272736  0.59767716  0.24574616    -0.02510
C1264       C  0.62974249  0.60393346  0.22151585     0.04310
N1265       N  0.64256553  0.63607562  0.19882354     0.66810
H1266       H  0.57577244  0.58328201  0.20187633     0.15710
H1267       H  0.65549124  0.56310062  0.03926744     0.15420
N1268       N  0.58799375  0.51793006  0.05111743     0.74520
O1269       O  0.62708465  0.63582304  0.16800279    -0.38930
O1270       O  0.66614652  0.66572699  0.21183702    -0.38880
O1271       O  0.60420832  0.00124049  0.06084205    -0.39580
O1272       O  0.56375644  0.51597201  0.07199228    -0.39650
C1273       C  0.97643827  0.86843825  0.01597364    -0.11930
C1274       C  0.94375712  0.84762512  0.99758040     0.05080
C1275       C  0.92628126  0.86463347  0.22982465    -0.07210
C1276       C  0.94276220  0.90220816  0.22987060    -0.07960
C1277       C  0.97514199  0.92325654  0.99921365    -0.02510
C1278       C  0.49191765  0.90579721  0.01767134     0.04310
N1279       N  0.52323448  0.92507465  0.04047964     0.66810
H1280       H  0.48953120  0.85536938  0.03018842     0.15710
H1281       H  0.92961598  0.91509067  0.21546569     0.15420
N1282       N  0.89130726  0.84435993  0.21330494     0.74520
O1283       O  0.52231464  0.94193149  0.06898937    -0.38930
O1284       O  0.54916213  0.91966007  0.28665629    -0.38880
O1285       O  0.86840198  0.81575705  0.97893439    -0.39580
O1286       O  0.88170723  0.85740152  0.18614903    -0.39650
C1287       C  0.92202125  0.01014012  0.23344808    -0.11890
C1288       C  0.95429859  0.52827395  0.25377039     0.05080
C1289       C  0.96150186  0.55928188  0.02441428    -0.07210
C1290       C  0.93708246  0.57188258  0.02284385    -0.07960
C1291       C  0.90484381  0.55353875  0.25278204    -0.02510
C1292       C  0.89675584  0.52167902  0.23355035     0.04310
N1293       N  0.86281347  0.00013372  0.21524838     0.66810
H1294       H  0.91617913  0.98636028  0.21762116     0.15710
H1295       H  0.94306966  0.59606658  0.03798592     0.15420
N1296       N  0.99259397  0.57758149  0.04812671     0.74520
O1297       O  0.85995399  0.98019228  0.18792914    -0.38930
O1298       O  0.83493782  0.99720542  0.97938738    -0.38880
O1299       O  0.50817054  0.61130024  0.30066714    -0.39580
O1300       O  0.00196443  0.56001881  0.07005584    -0.39650
C1301       C  0.97980164  0.51434454  0.50213481     0.03470
C1302       C  0.51622074  0.53754827  0.49703998    -0.12680
C1303       C  0.53994737  0.52413336  0.49540104     0.00970
C1304       C  0.52651979  0.98680934  0.24508734    -0.11210
C1305       C  0.99011155  0.96301352  0.24993362     0.03460
C1306       C  0.96729770  0.97727922  0.25451135    -0.10630
H1307       H  0.52630235  0.56619139  0.49523632     0.09060
H1308       H  0.54458855  0.97649747  0.24112411     0.06590
H1309       H  0.93946901  0.95934896  0.25986284     0.06430
C1310       C  0.92845383  0.80824089  0.24775120     0.03470
C1311       C  0.92001589  0.78930988  0.46353175    -0.12680
C1312       C  0.90421833  0.75185223  0.46391761     0.00970
C1313       C  0.89726673  0.73335892  0.24860746    -0.11210
C1314       C  0.90420335  0.75189114  0.28282034     0.03460
C1315       C  0.92012538  0.78932862  0.28234870    -0.10630
H1316       H  0.92461588  0.80358456  0.43674002     0.09060
H1317       H  0.88312062  0.70427660  0.24889651     0.06590
H1318       H  0.92458131  0.80360385  0.30874872     0.06430
C1319       C  0.88072165  0.56889712  0.50159378     0.03470
C1320       C  0.87041268  0.57750055  0.46665375    -0.12680
C1321       C  0.84871268  0.59333510  0.46553849     0.00970
C1322       C  0.83711141  0.60037491  0.49947737    -0.11210
C1323       C  0.84882827  0.59371397  0.28443449     0.03460
C1324       C  0.87046280  0.57784546  0.28542595    -0.10630
H1325       H  0.88035707  0.57312480  0.44046709     0.09060
H1326       H  0.82209903  0.61455974  0.49866982     0.06590
H1327       H  0.88003957  0.57332428  0.31245775     0.06430
Fe1328     Fe  0.82552390  0.70737432  0.37238498     1.65780
Fe1329     Fe  0.88256208  0.67307869  0.37438566     1.73250
Fe1330     Fe  0.79251723  0.61621834  0.37307216     1.54410
O1331       O  0.76633880  0.62696364  0.41440673    -0.81330
O1332       O  0.87208096  0.63588407  0.33293768    -0.79640
O1333       O  0.78801822  0.68618122  0.41462419    -0.83840
O1334       O  0.78833183  0.68677736  0.32888577    -0.78700
O1335       O  0.81361291  0.59906424  0.41666433    -0.80470
O1336       O  0.89880941  0.71077672  0.33108803    -0.83210
C1337       C  0.76817902  0.65570577  0.31595486     0.97550
C1338       C  0.76800991  0.65500005  0.42778479     1.04990
O1339       O  0.83352959  0.66555243  0.37330061    -1.12200
O1340       O  0.89895228  0.71091898  0.41688392    -0.74630
O1341       O  0.86205752  0.73335263  0.41487085    -0.78120
O1342       O  0.76628847  0.62751930  0.33035997    -0.78810
C1343       C  0.88806402  0.73136329  0.42932963     0.96450
O1344       O  0.86236001  0.73374188  0.33090034    -0.76760
O1345       O  0.87208897  0.63593349  0.41687647    -0.81960
C1346       C  0.84445955  0.61012575  0.31856373     0.99080
C1347       C  0.84447734  0.60976920  0.43041492     1.04990
O1348       O  0.81352059  0.59962793  0.33078811    -0.77600
C1349       C  0.88811260  0.73147214  0.31751681     1.03290
C1350       C  0.69186540  0.62121994  0.49587752     0.03470
C1351       C  0.71088532  0.63181004  0.28045770    -0.12680
C1352       C  0.74794897  0.65192197  0.28085648     0.00970
C1353       C  0.76617377  0.66250658  0.49659500    -0.11210
C1354       C  0.74774506  0.65099049  0.46203604     0.03460
C1355       C  0.71067179  0.63015884  0.46172656    -0.10630
H1356       H  0.69699905  0.62350589  0.30712725     0.09060
H1357       H  0.79495106  0.67664624  0.49694959     0.06590
H1358       H  0.69661407  0.61996931  0.43508788     0.06430
C1359       C  0.59324823  0.57895279  0.47096491    -0.11930
C1360       C  0.57886085  0.54921591  0.49569604     0.05080
C1361       C  0.60168194  0.54448048  0.27150420    -0.07210
C1362       C  0.63825685  0.56780786  0.27017706    -0.07960
C1363       C  0.65272837  0.59767688  0.49574501    -0.02510
C1364       C  0.62974351  0.60393307  0.47151457     0.04310
N1365       N  0.64256665  0.63607495  0.44882174     0.66810
H1366       H  0.57577336  0.58328171  0.45187540     0.15710
H1367       H  0.65549178  0.56309971  0.28926470     0.15420
N1368       N  0.58799657  0.51792786  0.30111618     0.74520
O1369       O  0.62708552  0.63582211  0.41800109    -0.38930
O1370       O  0.66614801  0.66572639  0.46183468    -0.38880
O1371       O  0.60421046  0.00123727  0.31083906    -0.39580
O1372       O  0.56376049  0.51597090  0.32199247    -0.39650
C1373       C  0.97643839  0.86843739  0.26597601    -0.11930
C1374       C  0.94375771  0.84762478  0.24758102     0.05080
C1375       C  0.92628225  0.86463360  0.47982525    -0.07210
C1376       C  0.94276317  0.90220830  0.47987107    -0.07960
C1377       C  0.97514271  0.92325605  0.24921514    -0.02510
C1378       C  0.49191763  0.90579659  0.26767339     0.04310
N1379       N  0.52323365  0.92507362  0.29048315     0.66810
H1380       H  0.48952979  0.85536958  0.28018957     0.15710
H1381       H  0.92961684  0.91509073  0.46546635     0.15420
N1382       N  0.89130812  0.84435998  0.46330583     0.74520
O1383       O  0.52231301  0.94193144  0.31899166    -0.38930
O1384       O  0.54916374  0.91966063  0.53665535    -0.38880
O1385       O  0.86840315  0.81575695  0.22893243    -0.39580
O1386       O  0.88170777  0.85740160  0.43615024    -0.39650
C1387       C  0.92202215  0.01014002  0.48344902    -0.11890
C1388       C  0.95429953  0.52827394  0.50377125     0.05080
C1389       C  0.96150689  0.55928484  0.27441187    -0.07210
C1390       C  0.93708781  0.57188519  0.27284064    -0.07960
C1391       C  0.90484445  0.55353833  0.50278350    -0.02510
C1392       C  0.89675654  0.52167868  0.48355169     0.04310
N1393       N  0.86281431  0.00013351  0.46524944     0.66810
H1394       H  0.91618013  0.98636028  0.46762188     0.15710
H1395       H  0.94307682  0.59607445  0.28798566     0.15420
N1396       N  0.99259931  0.57758395  0.29812365     0.74520
O1397       O  0.85995496  0.98019231  0.43792999    -0.38930
O1398       O  0.83494264  0.99720901  0.22938570    -0.38880
O1399       O  0.50817137  0.61130032  0.55066790    -0.39580
O1400       O  0.00196923  0.56002155  0.32005354    -0.39650
C1401       C  0.97980028  0.51434416  0.75213558     0.03470
C1402       C  0.51621934  0.53754777  0.74704027    -0.12680
C1403       C  0.53994583  0.52413271  0.74540079     0.00970
C1404       C  0.52652082  0.98680957  0.49508701    -0.11210
C1405       C  0.99011265  0.96301372  0.49993370     0.03460
C1406       C  0.96729882  0.97727936  0.50451184    -0.10630
H1407       H  0.52630103  0.56619091  0.74523661     0.09060
H1408       H  0.54458956  0.97649776  0.49112352     0.06590
H1409       H  0.93947019  0.95934906  0.50986363     0.06430
C1410       C  0.92845503  0.80824112  0.49775167     0.03470
C1411       C  0.92001465  0.78930955  0.71353258    -0.12680
C1412       C  0.90421727  0.75185191  0.71391822     0.00970
C1413       C  0.89726769  0.73335913  0.49860795    -0.11210
C1414       C  0.90420399  0.75189134  0.53282081     0.03460
C1415       C  0.92012614  0.78932883  0.53234917    -0.10630
H1416       H  0.92461499  0.80358438  0.68674092     0.09060
H1417       H  0.88312148  0.70427681  0.49889696     0.06590
H1418       H  0.92458182  0.80360406  0.55874915     0.06430
C1419       C  0.88072067  0.56889720  0.75159485     0.03470
C1420       C  0.87041222  0.57750086  0.71665465    -0.12680
C1421       C  0.84871185  0.59333497  0.71553896     0.00970
C1422       C  0.83710958  0.60037404  0.74947757    -0.11210
C1423       C  0.84882911  0.59371413  0.53443501     0.03460
C1424       C  0.87046335  0.57784527  0.53542690    -0.10630
H1425       H  0.88035718  0.57312548  0.69046819     0.09060
H1426       H  0.82209682  0.61455848  0.74866968     0.06590
H1427       H  0.88003978  0.57332397  0.56245886     0.06430
Fe1428     Fe  0.82552376  0.70737428  0.62238481     1.65780
Fe1429     Fe  0.88256203  0.67307874  0.62438621     1.73250
Fe1430     Fe  0.79251721  0.61621833  0.62307204     1.54410
O1431       O  0.76633812  0.62696360  0.66440599    -0.81330
O1432       O  0.87208139  0.63588455  0.58293792    -0.79640
O1433       O  0.78801800  0.68618123  0.66462401    -0.83840
O1434       O  0.78833176  0.68677719  0.57888556    -0.78700
O1435       O  0.81361240  0.59906443  0.66666475    -0.80470
O1436       O  0.89880986  0.71077719  0.58108893    -0.83210
C1437       C  0.76817942  0.65570564  0.56595431     0.97550
C1438       C  0.76800930  0.65499999  0.67778424     1.04990
O1439       O  0.83352952  0.66555243  0.62330069    -1.12200
O1440       O  0.89895164  0.71091861  0.66688482    -0.74630
O1441       O  0.86205731  0.73335277  0.66487068    -0.78120
O1442       O  0.76628906  0.62751921  0.58035926    -0.78810
C1443       C  0.88806345  0.73136314  0.67933005     0.96450
O1444       O  0.86235992  0.73374172  0.58090016    -0.76760
O1445       O  0.87208857  0.63593313  0.66687673    -0.81960
C1446       C  0.84446013  0.61012593  0.56856411     0.99080
C1447       C  0.84447678  0.60976911  0.68041530     1.04990
O1448       O  0.81352112  0.59962779  0.58078856    -0.77600
C1449       C  0.88811290  0.73147231  0.56751720     1.03290
C1450       C  0.69186390  0.62121945  0.74587600     0.03470
C1451       C  0.71088609  0.63181010  0.53045667    -0.12680
C1452       C  0.74794972  0.65192181  0.53085571     0.00970
C1453       C  0.76617224  0.66250653  0.74659444    -0.11210
C1454       C  0.74774397  0.65099029  0.71203523     0.03460
C1455       C  0.71067068  0.63015844  0.71172529    -0.10630
H1456       H  0.69699964  0.62350635  0.55712615     0.09060
H1457       H  0.79494953  0.67664634  0.74694943     0.06590
H1458       H  0.69661326  0.61996882  0.68508648     0.06430
C1459       C  0.59324653  0.57895181  0.72096370    -0.11930
C1460       C  0.57885934  0.54921511  0.74569510     0.05080
C1461       C  0.60168289  0.54448077  0.52150385    -0.07210
C1462       C  0.63825782  0.56780790  0.52017636    -0.07960
C1463       C  0.65272690  0.59767605  0.74574322    -0.02510
C1464       C  0.62974185  0.60393205  0.72151288     0.04310
N1465       N  0.64256479  0.63607370  0.69881972     0.66810
H1466       H  0.57577148  0.58328063  0.70187442     0.15710
H1467       H  0.65549274  0.56309988  0.53926410     0.15420
N1468       N  0.58799753  0.51792858  0.55111626     0.74520
O1469       O  0.62708341  0.63582056  0.66799915    -0.38930
O1470       O  0.66614624  0.66572529  0.71183229    -0.38880
O1471       O  0.60421148  0.00123806  0.56083941    -0.39580
O1472       O  0.56376142  0.51597189  0.57199231    -0.39650
C1473       C  0.97643971  0.86843767  0.51597610    -0.11930
C1474       C  0.94375887  0.84762499  0.49758143     0.05080
C1475       C  0.92628046  0.86463305  0.72982616    -0.07210
C1476       C  0.94276140  0.90220775  0.72987197    -0.07960
C1477       C  0.97514386  0.92325626  0.49921528    -0.02510
C1478       C  0.49191896  0.90579689  0.51767333     0.04310
N1479       N  0.52323523  0.92507404  0.54048270     0.66810
H1480       H  0.48953121  0.85536994  0.53018949     0.15710
H1481       H  0.92961515  0.91509022  0.71546714     0.15420
N1482       N  0.89130647  0.84435944  0.71330642     0.74520
O1483       O  0.52231488  0.94193191  0.56899131    -0.38930
O1484       O  0.54916158  0.91965966  0.78665714    -0.38880
O1485       O  0.86840424  0.81575688  0.47893332    -0.39580
O1486       O  0.88170634  0.85740107  0.68615064    -0.39650
C1487       C  0.92202085  0.01013986  0.73345015    -0.11890
C1488       C  0.95429827  0.52827365  0.75377231     0.05080
C1489       C  0.96150778  0.55928475  0.52441285    -0.07210
C1490       C  0.93708851  0.57188487  0.52284197    -0.07960
C1491       C  0.90484333  0.55353823  0.75278487    -0.02510
C1492       C  0.89675539  0.52167867  0.73355285     0.04310
N1493       N  0.86281311  0.00013364  0.71525059     0.66810
H1494       H  0.91617872  0.98636013  0.71762293     0.15710
H1495       H  0.94307748  0.59607411  0.53798704     0.15420
N1496       N  0.99260038  0.57758405  0.54812434     0.74520
O1497       O  0.85995376  0.98019266  0.68793092    -0.38930
O1498       O  0.83494342  0.99720866  0.47938673    -0.38880
O1499       O  0.50817016  0.61129974  0.80066955    -0.39580
O1500       O  0.00197073  0.56002180  0.57005392    -0.39650
C1501       C  0.97979750  0.51434351  0.00213539     0.03470
C1502       C  0.51621668  0.53754863  0.99704098    -0.12680
C1503       C  0.53994398  0.52413423  0.99540150     0.00970
C1504       C  0.52651911  0.98680885  0.74508720    -0.11210
C1505       C  0.99011099  0.96301316  0.74993440     0.03460
C1506       C  0.96729734  0.97727896  0.75451276    -0.10630
H1507       H  0.52629695  0.56618967  0.99523824     0.09060
H1508       H  0.54458769  0.97649685  0.74112354     0.06590
H1509       H  0.93946874  0.95934876  0.75986483     0.06430
C1510       C  0.92845317  0.80824055  0.74775261     0.03470
C1511       C  0.92001332  0.78930970  0.96353125    -0.12680
C1512       C  0.90421539  0.75185207  0.96391735     0.00970
C1513       C  0.89726620  0.73335860  0.74860845    -0.11210
C1514       C  0.90420175  0.75189055  0.78282138     0.03460
C1515       C  0.92012374  0.78932804  0.78234997    -0.10630
H1516       H  0.92461322  0.80358441  0.93673897     0.09060
H1517       H  0.88312016  0.70427628  0.74889724     0.06590
H1518       H  0.92457897  0.80360310  0.80875000     0.06430
C1519       C  0.88071559  0.56889370  0.00159439     0.03470
C1520       C  0.87040720  0.57749747  0.96665396    -0.12680
C1521       C  0.84870825  0.59333332  0.96553872     0.00970
C1522       C  0.83710756  0.60037395  0.99947740    -0.11210
C1523       C  0.84882684  0.59371320  0.78443545     0.03460
C1524       C  0.87046159  0.57784487  0.78542777    -0.10630
H1525       H  0.88035110  0.57312151  0.94046835     0.09060
H1526       H  0.82209613  0.61455987  0.99866974     0.06590
H1527       H  0.88003768  0.57332347  0.81245989     0.06430
Fe1528     Fe  0.82552095  0.70737344  0.87238495     1.65780
Fe1529     Fe  0.88255904  0.67307769  0.87438656     1.73250
Fe1530     Fe  0.79251418  0.61621742  0.87307176     1.54410
O1531       O  0.76633599  0.62696231  0.91440721    -0.81330
O1532       O  0.87207829  0.63588206  0.83293984    -0.79640
O1533       O  0.78801386  0.68617970  0.91462304    -0.83840
O1534       O  0.78833040  0.68677716  0.82888436    -0.78700
O1535       O  0.81360974  0.59906232  0.91666312    -0.80470
O1536       O  0.89880622  0.71077471  0.83108804    -0.83210
C1537       C  0.76817704  0.65570552  0.81595395     0.97550
C1538       C  0.76800631  0.65499866  0.92778454     1.04990
O1539       O  0.83352658  0.66555150  0.87330085    -1.12200
O1540       O  0.89894956  0.71091918  0.91688355    -0.74630
O1541       O  0.86205333  0.73335108  0.91487189    -0.78120
O1542       O  0.76628532  0.62751890  0.83036008    -0.78810
C1543       C  0.88806069  0.73136280  0.92932977     0.96450
O1544       O  0.86235851  0.73374185  0.83090161    -0.76760
O1545       O  0.87208552  0.63593340  0.91687840    -0.81960
C1546       C  0.84445708  0.61012471  0.81856439     0.99080
C1547       C  0.84447379  0.60976800  0.93041519     1.04990
O1548       O  0.81351770  0.59962781  0.83078700    -0.77600
C1549       C  0.88811046  0.73147122  0.81751756     1.03290
C1550       C  0.69186223  0.62122087  0.99587822     0.03470
C1551       C  0.71088418  0.63180978  0.78045538    -0.12680
C1552       C  0.74794778  0.65192167  0.78085495     0.00970
C1553       C  0.76617085  0.66250519  0.99659503    -0.11210
C1554       C  0.74774174  0.65098943  0.96203612     0.03460
C1555       C  0.71066838  0.63015902  0.96172719    -0.10630
H1556       H  0.69699740  0.62350598  0.80712467     0.09060
H1557       H  0.79494805  0.67664397  0.99694934     0.06590
H1558       H  0.69660984  0.61996946  0.93508791     0.06430
C1559       C  0.59324522  0.57895489  0.97096734    -0.11930
C1560       C  0.57885726  0.54921768  0.99569720     0.05080
C1561       C  0.60168166  0.54448001  0.77150254    -0.07210
C1562       C  0.63825656  0.56780711  0.77017463    -0.07960
C1563       C  0.65272511  0.59767844  0.99574650    -0.02510
C1564       C  0.62973999  0.60393526  0.97151643     0.04310
N1565       N  0.64256347  0.63607766  0.94882461     0.66810
H1566       H  0.57576768  0.58328473  0.95187521     0.15710
H1567       H  0.65549162  0.56309918  0.78926222     0.15420
N1568       N  0.58799662  0.51792794  0.80111508     0.74520
O1569       O  0.62708119  0.63582591  0.91800492    -0.38930
O1570       O  0.66614593  0.66572847  0.96183728    -0.38880
O1571       O  0.60421047  0.00123734  0.81083804    -0.39580
O1572       O  0.56376097  0.51597157  0.82199167    -0.39650
C1573       C  0.97643773  0.86843707  0.76597736    -0.11930
C1574       C  0.94375697  0.84762442  0.74758253     0.05080
C1575       C  0.92628002  0.86463370  0.97982465    -0.07210
C1576       C  0.94276119  0.90220808  0.97987050    -0.07960
C1577       C  0.97514206  0.92325569  0.74921622    -0.02510
C1578       C  0.49191704  0.90579632  0.76767451     0.04310
N1579       N  0.52323329  0.92507351  0.79048392     0.66810
H1580       H  0.48952913  0.85536932  0.78019093     0.15710
H1581       H  0.92961310  0.91509161  0.96546485     0.15420
N1582       N  0.89130557  0.84435979  0.96330629     0.74520
O1583       O  0.52231311  0.94193203  0.81899204    -0.38930
O1584       O  0.54916354  0.91966242  0.03664995    -0.38880
O1585       O  0.86840249  0.81575626  0.72893369    -0.39580
O1586       O  0.88170470  0.85740113  0.93615069    -0.39650
C1587       C  0.92201700  0.01013663  0.98344942    -0.11890
C1588       C  0.95429463  0.52827212  0.00377241     0.05080
C1589       C  0.96150658  0.55928437  0.77441415    -0.07210
C1590       C  0.93708732  0.57188454  0.77284351    -0.07960
C1591       C  0.90483838  0.55353478  0.00278426    -0.02510
C1592       C  0.89675108  0.52167571  0.98355278     0.04310
N1593       N  0.86280880  0.00012951  0.96525056     0.66810
H1594       H  0.91617676  0.98636214  0.96762547     0.15710
H1595       H  0.94307630  0.59607372  0.78798875     0.15420
N1596       N  0.99259928  0.57758354  0.79812554     0.74520
O1597       O  0.85994930  0.98018726  0.93793251    -0.38930
O1598       O  0.83494224  0.99720877  0.72938794    -0.38880
O1599       O  0.50816385  0.61129733  0.05067193    -0.39580
O1600       O  0.00196986  0.56002117  0.82005465    -0.39650
loop_ 
_geom_bond_atom_site_label_1 
_geom_bond_atom_site_label_2 
_geom_bond_distance 
_geom_bond_site_symmetry_2 
_ccdc_geom_bond_type 
C1           C88   1.492       .  S
C1          C802   1.405       .  A
C1          C506   1.405   1_545  A
C2            C3   1.404       .  A
C2          C801   1.405   1_455  A
C2            H7   1.083       .  S
C3           C60   1.488       .  S
C3          C504   1.408   1_545  A
C4          C703   1.408       .  A
C4          C805   1.407   1_455  A
C4            H8   1.082       .  S
C5           C77   1.496       .  S
C5            C6   1.406   1_556  A
C5          C804   1.407       .  A
C6          C701   1.405       .  A
C6            H9   1.083       .  S
C10          C74   1.479       .  S
C10          C15   1.404   1_556  A
C10         C311   1.405       .  A
C11          C12   1.402       .  A
C11         C110   1.405       .  A
C11          H16   1.084       .  S
C12          C43   1.466       .  S
C12         C113   1.401       .  A
C13          C14   1.401   1_556  A
C13         C312   1.401       .  A
C13          H17   1.085       .  S
C14          C49   1.466       .  S
C14          C15   1.401       .  A
C15          H18   1.084       .  S
C19          C91   1.482       .  S
C19          C20   1.406       .  A
C19         C124   1.405       .  A
C20          C21   1.402       .  A
C20          H25   1.085       .  S
C21          C47   1.466       .  S
C21          C22   1.401       .  A
C22         C123   1.401       .  A
C22          H26   1.085       .  S
C23          C46   1.466       .  S
C23          C24   1.401       .  A
C23         C322   1.401   1_554  A
C24         C319   1.405       .  A
C24          H27   1.084       .  S
Fe28         O44   2.057       .  S
Fe28         O34   2.068       .  S
Fe28         O41   2.054       .  S
Fe28         O33   2.071       .  S
Fe28         O39   1.984       .  S
Fe29         O32   2.056       .  S
Fe29         O36   2.068       .  S
Fe29         O40   2.072       .  S
Fe29         O45   2.054       .  S
Fe29         O39   1.983       .  S
Fe30         O48   2.070       .  S
Fe30         O35   2.073       .  S
Fe30         O42   2.058       .  S
Fe30         O31   2.056       .  S
Fe30         O39   1.984       .  S
O31          C38   1.266       .  A
O32          C46   1.266       .  A
O33          C38   1.268       .  A
O34          C37   1.267       .  A
O35          C47   1.269       .  A
O36          C49   1.268       .  A
C37          C52   1.466       .  S
C37          O42   1.267       .  A
C38          C54   1.466       .  S
O40          C43   1.268       .  A
O41          C43   1.266       .  A
O44          C49   1.267       .  A
O45          C47   1.266       .  A
C46          O48   1.268       .  A
C50          C63   1.487       .  S
C50          C55   1.407       .  A
C50         C151   1.408       .  A
C51          C52   1.400       .  A
C51         C350   1.408   1_554  A
C51          H56   1.084       .  S
C52         C353   1.399   1_554  A
C53          C54   1.400       .  A
C53         C152   1.399       .  A
C53          H57   1.085       .  S
C54          C55   1.402       .  A
C55          H58   1.084       .  S
C59          C60   1.406       .  A
C59          C64   1.408       .  A
C59          H66   1.082       .  S
C60         C161   1.413       .  A
C61          C62   1.399       .  A
C61         C360   1.413   1_554  A
C61          N68   1.435       .  S
C62         C363   1.403   1_554  A
C62          H67   1.083       .  S
C63          C64   1.418       .  A
C63         C162   1.403       .  A
C64          N65   1.440       .  S
N65          O69   1.263       .  A
N65          O70   1.263       .  A
N68          O72   1.262       .  A
N68         O471   1.263       .  A
O71         N468   1.263       .  A
C73          C74   1.400   1_554  A
C73         C878   1.401       .  A
C73         H880   1.084       .  S
C74         C375   1.414       .  A
C75          C76   1.404       .  A
C75         C174   1.414       .  A
C75          N82   1.441       .  S
C76         C177   1.409       .  A
C76          H81   1.083       .  S
C77         C376   1.409       .  A
C77         C878   1.416   1_556  A
C78         C873   1.401       .  A
C78         C877   1.416   1_554  A
C78          N79   1.430   1_655  S
N79          O83   1.261       .  A
N79         O384   1.262       .  A
H80         C873   1.084       .  S
N82          O86   1.263       .  A
N82         O185   1.263       .  A
O84         N179   1.262       .  A
O85         N382   1.263       .  A
C87         C488   1.408       .  A
C87         C492   1.404       .  A
C87          H94   1.084       .  S
C88         C487   1.408       .  A
C88         C189   1.418       .  A
C89          C90   1.403       .  A
C89         C388   1.418       .  A
C89          N96   1.437       .  S
C90         C391   1.403       .  A
C90          H95   1.084       .  S
C91          C92   1.414       .  A
C91         C190   1.403       .  A
C92         C487   1.404       .  A
C92         N493   1.441       .  S
N93         C492   1.441       .  S
N93          O97   1.263       .  A
N93         O198   1.263       .  A
N96         O100   1.262       .  A
N96        O1199   1.263       .  A
O98         N393   1.263       .  A
O99         N996   1.263   1_455  A
C101        C188   1.492       .  S
C101        C902   1.405       .  A
C101        C606   1.405   1_545  A
C102        C901   1.405   1_455  A
C102        C103   1.404       .  A
C102        H107   1.083       .  S
C103        C160   1.488       .  S
C103        C604   1.408   1_545  A
C104        C403   1.408       .  A
C104        C905   1.407   1_455  A
C104        H108   1.082       .  S
C105        C177   1.496       .  S
C105        C904   1.407       .  A
C105        C106   1.406       .  A
C106        C401   1.405       .  A
C106        H109   1.083       .  S
C110        C174   1.479       .  S
C110        C115   1.404       .  A
C111        C210   1.405       .  A
C111        C112   1.402       .  A
C111        H116   1.084       .  S
C112        C143   1.466       .  S
C112        C213   1.401       .  A
C113        C114   1.401       .  A
C113        H117   1.085       .  S
C114        C149   1.466       .  S
C114        C115   1.401       .  A
C115        H118   1.084       .  S
C119        C191   1.482       .  S
C119        C120   1.406       .  A
C119        C224   1.405       .  A
C120        C121   1.402       .  A
C120        H125   1.085       .  S
C121        C147   1.466       .  S
C121        C122   1.401       .  A
C122        C223   1.401       .  A
C122        H126   1.085       .  S
C123        C146   1.466       .  S
C123        C124   1.401       .  A
C124        H127   1.084       .  S
Fe128       O144   2.057       .  S
Fe128       O134   2.068       .  S
Fe128       O141   2.054       .  S
Fe128       O133   2.071       .  S
Fe128       O139   1.984       .  S
Fe129       O132   2.056       .  S
Fe129       O136   2.068       .  S
Fe129       O140   2.072       .  S
Fe129       O145   2.054       .  S
Fe129       O139   1.983       .  S
Fe130       O148   2.070       .  S
Fe130       O135   2.073       .  S
Fe130       O142   2.058       .  S
Fe130       O131   2.056       .  S
Fe130       O139   1.984       .  S
O131        C138   1.266       .  A
O132        C146   1.266       .  A
O133        C138   1.268       .  A
O134        C137   1.267       .  A
O135        C147   1.269       .  A
O136        C149   1.268       .  A
C137        C152   1.466       .  S
C137        O142   1.267       .  A
C138        C154   1.466       .  S
O140        C143   1.268       .  A
O141        C143   1.266       .  A
O144        C149   1.267       .  A
O145        C147   1.266       .  A
C146        O148   1.268       .  A
C150        C163   1.487       .  S
C150        C251   1.408       .  A
C150        C155   1.407       .  A
C151        C152   1.400       .  A
C151        H156   1.084       .  S
C153        C252   1.399       .  A
C153        C154   1.400       .  A
C153        H157   1.085       .  S
C154        C155   1.402       .  A
C155        H158   1.084       .  S
C159        C160   1.406       .  A
C159        C164   1.408       .  A
C159        H166   1.082       .  S
C160        C261   1.413       .  A
C161        C162   1.399       .  A
C161        N168   1.435       .  S
C162        H167   1.083       .  S
C163        C262   1.403       .  A
C163        C164   1.418       .  A
C164        N165   1.440       .  S
N165        O169   1.263       .  A
N165        O170   1.263       .  A
N168        O571   1.263       .  A
N168        O172   1.262       .  A
O171        N568   1.263       .  A
C173        C174   1.401       .  A
C173        C978   1.401       .  A
C173        H980   1.084       .  S
C175        C274   1.414       .  A
C175        C176   1.404       .  A
C175        N182   1.441       .  S
C176        C277   1.409       .  A
C176        H181   1.083       .  S
C177        C978   1.416       .  A
C178        C973   1.401       .  A
C178        C977   1.416       .  A
C178        N179   1.430   1_655  S
N179        O183   1.261       .  A
H180        C973   1.084       .  S
N182        O285   1.263       .  A
N182        O186   1.263       .  A
O184        N279   1.262       .  A
C187        C588   1.408       .  A
C187        C592   1.404       .  A
C187        H194   1.084       .  S
C188        C587   1.408       .  A
C188        C289   1.418       .  A
C189        C190   1.402       .  A
C189        N196   1.437       .  S
C190        H195   1.085       .  S
C191        C290   1.403       .  A
C191        C192   1.414       .  A
C192        C587   1.404       .  A
C192        N593   1.441       .  S
N193        C592   1.441       .  S
N193        O197   1.263       .  A
N193        O298   1.263       .  A
N196        O899   1.263       .  A
N196        O200   1.262       .  A
O199       N1096   1.263   1_455  A
C201        C288   1.492       .  S
C201       C1002   1.405       .  A
C201        C706   1.405   1_545  A
C202       C1001   1.405   1_455  A
C202        C203   1.404       .  A
C202        H207   1.083       .  S
C203        C260   1.488       .  S
C203        C704   1.408   1_545  A
C204        C503   1.408       .  A
C204       C1005   1.407   1_455  A
C204        H208   1.082       .  S
C205        C277   1.496       .  S
C205       C1004   1.407       .  A
C205        C206   1.406       .  A
C206        C501   1.405       .  A
C206        H209   1.083       .  S
C210        C274   1.479       .  S
C210        C215   1.404       .  A
C211        C310   1.405       .  A
C211        C212   1.402       .  A
C211        H216   1.084       .  S
C212        C243   1.466       .  S
C212        C313   1.401       .  A
C213        C214   1.401       .  A
C213        H217   1.085       .  S
C214        C249   1.466       .  S
C214        C215   1.401       .  A
C215        H218   1.084       .  S
C219        C291   1.482       .  S
C219        C220   1.406       .  A
C219        C324   1.405       .  A
C220        C221   1.402       .  A
C220        H225   1.085       .  S
C221        C247   1.466       .  S
C221        C222   1.401       .  A
C222        C323   1.401       .  A
C222        H226   1.085       .  S
C223        C246   1.466       .  S
C223        C224   1.401       .  A
C224        H227   1.084       .  S
Fe228       O244   2.057       .  S
Fe228       O234   2.068       .  S
Fe228       O241   2.054       .  S
Fe228       O233   2.071       .  S
Fe228       O239   1.984       .  S
Fe229       O232   2.056       .  S
Fe229       O236   2.068       .  S
Fe229       O240   2.072       .  S
Fe229       O245   2.054       .  S
Fe229       O239   1.983       .  S
Fe230       O248   2.070       .  S
Fe230       O235   2.073       .  S
Fe230       O242   2.058       .  S
Fe230       O231   2.056       .  S
Fe230       O239   1.984       .  S
O231        C238   1.266       .  A
O232        C246   1.266       .  A
O233        C238   1.268       .  A
O234        C237   1.267       .  A
O235        C247   1.269       .  A
O236        C249   1.268       .  A
C237        C252   1.466       .  S
C237        O242   1.267       .  A
C238        C254   1.466       .  S
O240        C243   1.268       .  A
O241        C243   1.266       .  A
O244        C249   1.267       .  A
O245        C247   1.266       .  A
C246        O248   1.268       .  A
C250        C263   1.487       .  S
C250        C351   1.408       .  A
C250        C255   1.407       .  A
C251        C252   1.400       .  A
C251        H256   1.084       .  S
C253        C352   1.399       .  A
C253        C254   1.400       .  A
C253        H257   1.085       .  S
C254        C255   1.402       .  A
C255        H258   1.084       .  S
C259        C260   1.406       .  A
C259        C264   1.408       .  A
C259        H266   1.082       .  S
C260        C361   1.413       .  A
C261        C262   1.399       .  A
C261        N268   1.435       .  S
C262        H267   1.083       .  S
C263        C362   1.403       .  A
C263        C264   1.418       .  A
C264        N265   1.440       .  S
N265        O269   1.263       .  A
N265        O270   1.263       .  A
N268        O671   1.263       .  A
N268        O272   1.262       .  A
O271        N668   1.263       .  A
C273        C274   1.401       .  A
C273       C1078   1.401       .  A
C273       H1080   1.084       .  S
C275        C374   1.414       .  A
C275        C276   1.404       .  A
C275        N282   1.441       .  S
C276        C377   1.409       .  A
C276        H281   1.083       .  S
C277       C1078   1.416       .  A
C278       C1073   1.401       .  A
C278       C1077   1.416       .  A
C278        N279   1.430   1_655  S
N279        O283   1.261       .  A
H280       C1073   1.084       .  S
N282        O385   1.263       .  A
N282        O286   1.263       .  A
O284        N379   1.262       .  A
C287        C688   1.408       .  A
C287        C692   1.404       .  A
C287        H294   1.084       .  S
C288        C687   1.408       .  A
C288        C389   1.418       .  A
C289        C290   1.402       .  A
C289        N296   1.437       .  S
C290        H295   1.085       .  S
C291        C390   1.403       .  A
C291        C292   1.414       .  A
C292        C687   1.404       .  A
C292        N693   1.441       .  S
N293        C692   1.441       .  S
N293        O297   1.263       .  A
N293        O398   1.263       .  A
N296        O999   1.263       .  A
N296        O300   1.262       .  A
O299       N1196   1.263   1_455  A
C301        C388   1.492       .  S
C301       C1102   1.405   1_554  A
C301        C406   1.405   1_545  A
C302       C1101   1.405   1_456  A
C302        C303   1.404       .  A
C302        H307   1.083       .  S
C303        C360   1.488       .  S
C303        C404   1.408   1_545  A
C304        C603   1.408       .  A
C304       C1105   1.407   1_455  A
C304        H308   1.082       .  S
C305        C377   1.496       .  S
C305       C1104   1.407       .  A
C305        C306   1.406       .  A
C306        C601   1.405       .  A
C306        H309   1.083       .  S
C310        C374   1.479       .  S
C310        C315   1.404       .  A
C311        C312   1.402       .  A
C311        H316   1.084       .  S
C312        C343   1.466       .  S
C313        C314   1.401       .  A
C313        H317   1.085       .  S
C314        C349   1.466       .  S
C314        C315   1.401       .  A
C315        H318   1.084       .  S
C319        C391   1.482       .  S
C319        C320   1.406   1_554  A
C320        C321   1.402       .  A
C320        H325   1.084       .  S
C321        C347   1.466       .  S
C321        C322   1.401       .  A
C322        H326   1.085       .  S
C323        C346   1.466       .  S
C323        C324   1.401       .  A
C324        H327   1.084       .  S
Fe328       O344   2.057       .  S
Fe328       O334   2.068       .  S
Fe328       O341   2.054       .  S
Fe328       O333   2.071       .  S
Fe328       O339   1.984       .  S
Fe329       O332   2.056       .  S
Fe329       O336   2.068       .  S
Fe329       O340   2.072       .  S
Fe329       O345   2.054       .  S
Fe329       O339   1.983       .  S
Fe330       O348   2.070       .  S
Fe330       O335   2.073       .  S
Fe330       O342   2.058       .  S
Fe330       O331   2.056       .  S
Fe330       O339   1.984       .  S
O331        C338   1.266       .  A
O332        C346   1.266       .  A
O333        C338   1.268       .  A
O334        C337   1.267       .  A
O335        C347   1.269       .  A
O336        C349   1.268       .  A
C337        C352   1.466       .  S
C337        O342   1.267       .  A
C338        C354   1.466       .  S
O340        C343   1.268       .  A
O341        C343   1.266       .  A
O344        C349   1.267       .  A
O345        C347   1.266       .  A
C346        O348   1.268       .  A
C350        C363   1.487       .  S
C350        C355   1.407       .  A
C351        C352   1.400       .  A
C351        H356   1.084       .  S
C353        C354   1.400       .  A
C353        H357   1.085       .  S
C354        C355   1.402       .  A
C355        H358   1.084       .  S
C359        C360   1.406       .  A
C359        C364   1.408       .  A
C359        H366   1.083       .  S
C361        C362   1.399       .  A
C361        N368   1.435       .  S
C362        H367   1.083       .  S
C363        C364   1.418       .  A
C364        N365   1.440       .  S
N365        O369   1.263       .  A
N365        O370   1.263       .  A
N368        O771   1.263       .  A
N368        O372   1.262       .  A
O371        N768   1.263       .  A
C373        C374   1.401       .  A
C373       C1178   1.401       .  A
C373       H1180   1.084       .  S
C375        C376   1.404       .  A
C375        N382   1.441       .  S
C376        H381   1.083       .  S
C377       C1178   1.416       .  A
C378       C1173   1.401       .  A
C378       C1177   1.416       .  A
C378        N379   1.430   1_655  S
N379        O383   1.261       .  A
H380       C1173   1.084       .  S
N382        O386   1.263       .  A
C387        C788   1.408   1_556  A
C387        C792   1.404       .  A
C387        H394   1.084       .  S
C388        C787   1.408   1_554  A
C389        C390   1.402       .  A
C389        N396   1.437       .  S
C390        H395   1.085       .  S
C391        C392   1.414   1_554  A
C392        C787   1.404       .  A
C392        N793   1.441       .  S
N393        C792   1.441       .  S
N393        O397   1.263       .  A
N396       O1099   1.263       .  A
N396        O400   1.262       .  A
O399        N896   1.263   1_455  A
C401        C488   1.492       .  S
C401       C1202   1.405       .  A
C402       C1201   1.405   1_455  A
C402        C403   1.404       .  A
C402        H407   1.083       .  S
C403        C460   1.488       .  S
C404       C1205   1.407   1_455  A
C404        H408   1.082       .  S
C405        C477   1.496       .  S
C405       C1204   1.407       .  A
C405        C406   1.406   1_556  A
C406        H409   1.083       .  S
C410        C474   1.479       .  S
C410        C711   1.405       .  A
C410        C415   1.404   1_556  A
C411        C510   1.405       .  A
C411        C412   1.402       .  A
C411        H416   1.084       .  S
C412        C443   1.466       .  S
C412        C513   1.401       .  A
C413        C712   1.401       .  A
C413        C414   1.401   1_556  A
C413        H417   1.085       .  S
C414        C449   1.466       .  S
C414        C415   1.401       .  A
C415        H418   1.084       .  S
C419        C491   1.482       .  S
C419        C420   1.406       .  A
C419        C524   1.405       .  A
C420        C421   1.402       .  A
C420        H425   1.085       .  S
C421        C447   1.466       .  S
C421        C422   1.401       .  A
C422        C523   1.401       .  A
C422        H426   1.085       .  S
C423        C446   1.466       .  S
C423        C722   1.401   1_554  A
C423        C424   1.401       .  A
C424        C719   1.405       .  A
C424        H427   1.084       .  S
Fe428       O444   2.057       .  S
Fe428       O434   2.068       .  S
Fe428       O441   2.054       .  S
Fe428       O433   2.071       .  S
Fe428       O439   1.984       .  S
Fe429       O432   2.056       .  S
Fe429       O436   2.068       .  S
Fe429       O440   2.072       .  S
Fe429       O445   2.054       .  S
Fe429       O439   1.983       .  S
Fe430       O448   2.070       .  S
Fe430       O435   2.073       .  S
Fe430       O442   2.058       .  S
Fe430       O431   2.056       .  S
Fe430       O439   1.984       .  S
O431        C438   1.266       .  A
O432        C446   1.266       .  A
O433        C438   1.268       .  A
O434        C437   1.267       .  A
O435        C447   1.269       .  A
O436        C449   1.268       .  A
C437        C452   1.466       .  S
C437        O442   1.267       .  A
C438        C454   1.466       .  S
O440        C443   1.268       .  A
O441        C443   1.266       .  A
O444        C449   1.267       .  A
O445        C447   1.266       .  A
C446        O448   1.268       .  A
C450        C463   1.487       .  S
C450        C551   1.408       .  A
C450        C455   1.407       .  A
C451        C750   1.408   1_554  A
C451        C452   1.400       .  A
C451        H456   1.084       .  S
C452        C753   1.399   1_554  A
C453        C552   1.399       .  A
C453        C454   1.400       .  A
C453        H457   1.085       .  S
C454        C455   1.402       .  A
C455        H458   1.084       .  S
C459        C460   1.406       .  A
C459        C464   1.408       .  A
C459        H466   1.082       .  S
C460        C561   1.413       .  A
C461        C760   1.413   1_554  A
C461        C462   1.399       .  A
C461        N468   1.435       .  S
C462        C763   1.403   1_554  A
C462        H467   1.083       .  S
C463        C562   1.403       .  A
C463        C464   1.418       .  A
C464        N465   1.440       .  S
N465        O469   1.263       .  A
N465        O470   1.263       .  A
N468        O472   1.262       .  A
C473        C474   1.400   1_554  A
C473       C1278   1.401       .  A
C473       H1280   1.084       .  S
C474        C775   1.414       .  A
C475        C574   1.414       .  A
C475        C476   1.404       .  A
C475        N482   1.441       .  S
C476        C577   1.409       .  A
C476        H481   1.083       .  S
C477        C776   1.409       .  A
C477       C1278   1.416   1_556  A
C478       C1273   1.401       .  A
C478       C1277   1.416   1_554  A
C478        N479   1.430   1_655  S
N479        O483   1.261       .  A
N479        O784   1.262       .  A
H480       C1273   1.084       .  S
N482        O585   1.263       .  A
N482        O486   1.263       .  A
O484        N579   1.262       .  A
O485        N782   1.263       .  A
C487        H494   1.084   1_545  S
C488        C589   1.418       .  A
C489        C788   1.418       .  A
C489        C490   1.403       .  A
C489        N496   1.437       .  S
C490        C791   1.403       .  A
C490        H495   1.084       .  S
C491        C590   1.403       .  A
C491        C492   1.414       .  A
N493        O497   1.263   1_545  A
N493        O598   1.263   1_545  A
N496       O1599   1.263       .  A
N496        O500   1.262       .  A
O498        N793   1.263   1_565  A
O499       N1396   1.263   1_455  A
C501        C588   1.492       .  S
C501       C1302   1.405       .  A
C502       C1301   1.405   1_455  A
C502        C503   1.404       .  A
C502        H507   1.083       .  S
C503        C560   1.488       .  S
C504       C1305   1.407   1_455  A
C504        H508   1.082       .  S
C505        C577   1.496       .  S
C505       C1304   1.407       .  A
C505        C506   1.406       .  A
C506        H509   1.083       .  S
C510        C574   1.479       .  S
C510        C515   1.404       .  A
C511        C610   1.405       .  A
C511        C512   1.402       .  A
C511        H516   1.084       .  S
C512        C543   1.466       .  S
C512        C613   1.401       .  A
C513        C514   1.401       .  A
C513        H517   1.085       .  S
C514        C549   1.466       .  S
C514        C515   1.401       .  A
C515        H518   1.084       .  S
C519        C591   1.482       .  S
C519        C520   1.406       .  A
C519        C624   1.405       .  A
C520        C521   1.402       .  A
C520        H525   1.085       .  S
C521        C547   1.466       .  S
C521        C522   1.401       .  A
C522        C623   1.401       .  A
C522        H526   1.085       .  S
C523        C546   1.466       .  S
C523        C524   1.401       .  A
C524        H527   1.084       .  S
Fe528       O544   2.057       .  S
Fe528       O534   2.068       .  S
Fe528       O541   2.054       .  S
Fe528       O533   2.071       .  S
Fe528       O539   1.984       .  S
Fe529       O532   2.056       .  S
Fe529       O536   2.068       .  S
Fe529       O540   2.072       .  S
Fe529       O545   2.054       .  S
Fe529       O539   1.983       .  S
Fe530       O548   2.070       .  S
Fe530       O535   2.073       .  S
Fe530       O542   2.058       .  S
Fe530       O531   2.056       .  S
Fe530       O539   1.984       .  S
O531        C538   1.266       .  A
O532        C546   1.266       .  A
O533        C538   1.268       .  A
O534        C537   1.267       .  A
O535        C547   1.269       .  A
O536        C549   1.268       .  A
C537        C552   1.466       .  S
C537        O542   1.267       .  A
C538        C554   1.466       .  S
O540        C543   1.268       .  A
O541        C543   1.266       .  A
O544        C549   1.267       .  A
O545        C547   1.266       .  A
C546        O548   1.268       .  A
C550        C563   1.487       .  S
C550        C651   1.408       .  A
C550        C555   1.407       .  A
C551        C552   1.400       .  A
C551        H556   1.084       .  S
C553        C652   1.399       .  A
C553        C554   1.400       .  A
C553        H557   1.085       .  S
C554        C555   1.402       .  A
C555        H558   1.084       .  S
C559        C560   1.406       .  A
C559        C564   1.408       .  A
C559        H566   1.082       .  S
C560        C661   1.413       .  A
C561        C562   1.399       .  A
C561        N568   1.435       .  S
C562        H567   1.083       .  S
C563        C662   1.403       .  A
C563        C564   1.418       .  A
C564        N565   1.440       .  S
N565        O569   1.263       .  A
N565        O570   1.263       .  A
N568        O572   1.262       .  A
C573        C574   1.401       .  A
C573       C1378   1.401       .  A
C573       H1380   1.084       .  S
C575        C674   1.414       .  A
C575        C576   1.404       .  A
C575        N582   1.441       .  S
C576        C677   1.409       .  A
C576        H581   1.083       .  S
C577       C1378   1.416       .  A
C578       C1373   1.401       .  A
C578       C1377   1.416       .  A
C578        N579   1.430   1_655  S
N579        O583   1.261       .  A
H580       C1373   1.084       .  S
N582        O685   1.263       .  A
N582        O586   1.263       .  A
O584        N679   1.262       .  A
C587        H594   1.084   1_545  S
C588        C689   1.418       .  A
C589        C590   1.402       .  A
C589        N596   1.437       .  S
C590        H595   1.085       .  S
C591        C690   1.403       .  A
C591        C592   1.414       .  A
N593        O597   1.263   1_545  A
N593        O698   1.263   1_545  A
N596       O1299   1.263       .  A
N596        O600   1.262       .  A
O599       N1496   1.263   1_455  A
C601        C688   1.492       .  S
C601       C1402   1.405       .  A
C602       C1401   1.405   1_455  A
C602        C603   1.404       .  A
C602        H607   1.083       .  S
C603        C660   1.488       .  S
C604       C1405   1.407   1_455  A
C604        H608   1.082       .  S
C605        C677   1.496       .  S
C605       C1404   1.407       .  A
C605        C606   1.406       .  A
C606        H609   1.083       .  S
C610        C674   1.479       .  S
C610        C615   1.404       .  A
C611        C710   1.405       .  A
C611        C612   1.402       .  A
C611        H616   1.084       .  S
C612        C643   1.466       .  S
C612        C713   1.401       .  A
C613        C614   1.401       .  A
C613        H617   1.085       .  S
C614        C649   1.466       .  S
C614        C615   1.401       .  A
C615        H618   1.084       .  S
C619        C691   1.482       .  S
C619        C620   1.406       .  A
C619        C724   1.405       .  A
C620        C621   1.402       .  A
C620        H625   1.085       .  S
C621        C647   1.466       .  S
C621        C622   1.401       .  A
C622        C723   1.401       .  A
C622        H626   1.085       .  S
C623        C646   1.466       .  S
C623        C624   1.401       .  A
C624        H627   1.084       .  S
Fe628       O644   2.057       .  S
Fe628       O634   2.068       .  S
Fe628       O641   2.054       .  S
Fe628       O633   2.071       .  S
Fe628       O639   1.984       .  S
Fe629       O632   2.056       .  S
Fe629       O636   2.068       .  S
Fe629       O640   2.072       .  S
Fe629       O645   2.054       .  S
Fe629       O639   1.983       .  S
Fe630       O648   2.070       .  S
Fe630       O635   2.073       .  S
Fe630       O642   2.058       .  S
Fe630       O631   2.056       .  S
Fe630       O639   1.984       .  S
O631        C638   1.266       .  A
O632        C646   1.266       .  A
O633        C638   1.268       .  A
O634        C637   1.267       .  A
O635        C647   1.269       .  A
O636        C649   1.268       .  A
C637        C652   1.466       .  S
C637        O642   1.267       .  A
C638        C654   1.466       .  S
O640        C643   1.268       .  A
O641        C643   1.266       .  A
O644        C649   1.267       .  A
O645        C647   1.266       .  A
C646        O648   1.268       .  A
C650        C663   1.487       .  S
C650        C751   1.408       .  A
C650        C655   1.407       .  A
C651        C652   1.400       .  A
C651        H656   1.084       .  S
C653        C752   1.399       .  A
C653        C654   1.400       .  A
C653        H657   1.085       .  S
C654        C655   1.402       .  A
C655        H658   1.084       .  S
C659        C660   1.406       .  A
C659        C664   1.408       .  A
C659        H666   1.082       .  S
C660        C761   1.413       .  A
C661        C662   1.399       .  A
C661        N668   1.435       .  S
C662        H667   1.083       .  S
C663        C762   1.403       .  A
C663        C664   1.418       .  A
C664        N665   1.440       .  S
N665        O669   1.263       .  A
N665        O670   1.263       .  A
N668        O672   1.262       .  A
C673        C674   1.401       .  A
C673       C1478   1.401       .  A
C673       H1480   1.084       .  S
C675        C774   1.414       .  A
C675        C676   1.404       .  A
C675        N682   1.441       .  S
C676        C777   1.409       .  A
C676        H681   1.083       .  S
C677       C1478   1.416       .  A
C678       C1473   1.401       .  A
C678       C1477   1.416       .  A
C678        N679   1.430   1_655  S
N679        O683   1.261       .  A
H680       C1473   1.084       .  S
N682        O785   1.263       .  A
N682        O686   1.263       .  A
O684        N779   1.262       .  A
C687        H694   1.084   1_545  S
C688        C789   1.418       .  A
C689        C690   1.402       .  A
C689        N696   1.437       .  S
C690        H695   1.085       .  S
C691        C790   1.403       .  A
C691        C692   1.414       .  A
N693        O697   1.263   1_545  A
N693        O798   1.263   1_545  A
N696       O1399   1.263       .  A
N696        O700   1.262       .  A
O699       N1596   1.263   1_455  A
C701        C788   1.492       .  S
C701       C1502   1.405   1_554  A
C702       C1501   1.405   1_456  A
C702        C703   1.404       .  A
C702        H707   1.083       .  S
C703        C760   1.488       .  S
C704       C1505   1.407   1_455  A
C704        H708   1.082       .  S
C705        C777   1.496       .  S
C705       C1504   1.407       .  A
C705        C706   1.406       .  A
C706        H709   1.083       .  S
C710        C774   1.479       .  S
C710        C715   1.404       .  A
C711        C712   1.402       .  A
C711        H716   1.084       .  S
C712        C743   1.466       .  S
C713        C714   1.401       .  A
C713        H717   1.085       .  S
C714        C749   1.466       .  S
C714        C715   1.401       .  A
C715        H718   1.084       .  S
C719        C791   1.482       .  S
C719        C720   1.406   1_554  A
C720        C721   1.402       .  A
C720        H725   1.084       .  S
C721        C747   1.466       .  S
C721        C722   1.401       .  A
C722        H726   1.085       .  S
C723        C746   1.466       .  S
C723        C724   1.401       .  A
C724        H727   1.084       .  S
Fe728       O744   2.057       .  S
Fe728       O734   2.068       .  S
Fe728       O741   2.054       .  S
Fe728       O733   2.071       .  S
Fe728       O739   1.984       .  S
Fe729       O732   2.056       .  S
Fe729       O736   2.068       .  S
Fe729       O740   2.072       .  S
Fe729       O745   2.054       .  S
Fe729       O739   1.983       .  S
Fe730       O748   2.070       .  S
Fe730       O735   2.073       .  S
Fe730       O742   2.058       .  S
Fe730       O731   2.056       .  S
Fe730       O739   1.984       .  S
O731        C738   1.266       .  A
O732        C746   1.266       .  A
O733        C738   1.268       .  A
O734        C737   1.267       .  A
O735        C747   1.269       .  A
O736        C749   1.268       .  A
C737        C752   1.466       .  S
C737        O742   1.267       .  A
C738        C754   1.466       .  S
O740        C743   1.268       .  A
O741        C743   1.266       .  A
O744        C749   1.267       .  A
O745        C747   1.266       .  A
C746        O748   1.268       .  A
C750        C763   1.487       .  S
C750        C755   1.407       .  A
C751        C752   1.400       .  A
C751        H756   1.084       .  S
C753        C754   1.400       .  A
C753        H757   1.085       .  S
C754        C755   1.402       .  A
C755        H758   1.084       .  S
C759        C760   1.406       .  A
C759        C764   1.408       .  A
C759        H766   1.083       .  S
C761        C762   1.399       .  A
C761        N768   1.435       .  S
C762        H767   1.083       .  S
C763        C764   1.418       .  A
C764        N765   1.440       .  S
N765        O769   1.263       .  A
N765        O770   1.263       .  A
N768        O772   1.262       .  A
C773        C774   1.401       .  A
C773       C1578   1.401       .  A
C773       H1580   1.084       .  S
C775        C776   1.404       .  A
C775        N782   1.441       .  S
C776        H781   1.083       .  S
C777       C1578   1.416       .  A
C778       C1573   1.401       .  A
C778       C1577   1.416       .  A
C778        N779   1.430   1_655  S
N779        O783   1.261       .  A
H780       C1573   1.084       .  S
N782        O786   1.263       .  A
C787        H794   1.084   1_545  S
C789        C790   1.402       .  A
C789        N796   1.437       .  S
C790        H795   1.085       .  S
C791        C792   1.414   1_554  A
N793        O797   1.263   1_545  A
N796       O1499   1.263       .  A
N796        O800   1.262       .  A
O799       N1296   1.263   1_455  A
C801        C888   1.492       .  S
C801       C1306   1.405   1_545  A
C802        C803   1.404       .  A
C802        H807   1.083       .  S
C803        C860   1.488       .  S
C803       C1304   1.408   1_545  A
C804       C1503   1.408       .  A
C804        H808   1.082       .  S
C805        C877   1.496       .  S
C805        C806   1.406   1_556  A
C806       C1501   1.405       .  A
C806        H809   1.083       .  S
C810        C874   1.479       .  S
C810       C1111   1.405       .  A
C810        C815   1.404   1_556  A
C811        C910   1.405       .  A
C811        C812   1.402       .  A
C811        H816   1.084       .  S
C812        C843   1.466       .  S
C812        C913   1.401       .  A
C813       C1112   1.401       .  A
C813        C814   1.401   1_556  A
C813        H817   1.085       .  S
C814        C849   1.466       .  S
C814        C815   1.401       .  A
C815        H818   1.084       .  S
C819        C891   1.482       .  S
C819        C820   1.406       .  A
C819        C924   1.405       .  A
C820        C821   1.402       .  A
C820        H825   1.085       .  S
C821        C847   1.466       .  S
C821        C822   1.401       .  A
C822        C923   1.401       .  A
C822        H826   1.085       .  S
C823        C846   1.466       .  S
C823       C1122   1.401   1_554  A
C823        C824   1.401       .  A
C824       C1119   1.405       .  A
C824        H827   1.084       .  S
Fe828       O844   2.057       .  S
Fe828       O834   2.068       .  S
Fe828       O841   2.054       .  S
Fe828       O833   2.071       .  S
Fe828       O839   1.984       .  S
Fe829       O832   2.056       .  S
Fe829       O836   2.068       .  S
Fe829       O840   2.072       .  S
Fe829       O845   2.054       .  S
Fe829       O839   1.983       .  S
Fe830       O848   2.070       .  S
Fe830       O835   2.073       .  S
Fe830       O842   2.058       .  S
Fe830       O831   2.056       .  S
Fe830       O839   1.984       .  S
O831        C838   1.266       .  A
O832        C846   1.266       .  A
O833        C838   1.268       .  A
O834        C837   1.267       .  A
O835        C847   1.269       .  A
O836        C849   1.268       .  A
C837        C852   1.466       .  S
C837        O842   1.267       .  A
C838        C854   1.466       .  S
O840        C843   1.268       .  A
O841        C843   1.266       .  A
O844        C849   1.267       .  A
O845        C847   1.266       .  A
C846        O848   1.268       .  A
C850        C863   1.487       .  S
C850        C951   1.408       .  A
C850        C855   1.407       .  A
C851       C1150   1.408   1_554  A
C851        C852   1.400       .  A
C851        H856   1.084       .  S
C852       C1153   1.399   1_554  A
C853        C952   1.399       .  A
C853        C854   1.400       .  A
C853        H857   1.085       .  S
C854        C855   1.402       .  A
C855        H858   1.084       .  S
C859        C860   1.406       .  A
C859        C864   1.408       .  A
C859        H866   1.082       .  S
C860        C961   1.413       .  A
C861       C1160   1.413   1_554  A
C861        C862   1.399       .  A
C861        N868   1.435       .  S
C862       C1163   1.403   1_554  A
C862        H867   1.083       .  S
C863        C962   1.403       .  A
C863        C864   1.418       .  A
C864        N865   1.440       .  S
N865        O869   1.263       .  A
N865        O870   1.263       .  A
N868       O1271   1.263       .  A
N868        O872   1.262       .  A
O871       N1268   1.263       .  A
C873        C874   1.400   1_554  A
C874       C1175   1.414       .  A
C875        C974   1.414       .  A
C875        C876   1.404       .  A
C875        N882   1.441       .  S
C876        C977   1.409       .  A
C876        H881   1.083       .  S
C877       C1176   1.409       .  A
C878        N879   1.430       .  S
N879        O883   1.261       .  A
N879       O1184   1.262       .  A
N882        O985   1.263       .  A
N882        O886   1.263       .  A
O884        N979   1.262       .  A
O885       N1182   1.263       .  A
C887       C1288   1.408       .  A
C887       C1292   1.404       .  A
C887        H894   1.084       .  S
C888       C1287   1.408       .  A
C888        C989   1.418       .  A
C889       C1188   1.418       .  A
C889        C890   1.403       .  A
C889        N896   1.437       .  S
C890       C1191   1.403       .  A
C890        H895   1.084       .  S
C891        C990   1.403       .  A
C891        C892   1.414       .  A
C892       C1287   1.404       .  A
C892       N1293   1.441       .  S
N893       C1292   1.441       .  S
N893        O897   1.263       .  A
N893        O998   1.263       .  A
N896        O900   1.262   1_655  A
O898       N1193   1.263       .  A
C901        C988   1.492       .  S
C901       C1406   1.405   1_545  A
C902        C903   1.404       .  A
C902        H907   1.083       .  S
C903        C960   1.488       .  S
C903       C1404   1.408   1_545  A
C904       C1203   1.408       .  A
C904        H908   1.082       .  S
C905        C977   1.496       .  S
C905        C906   1.406       .  A
C906       C1201   1.405       .  A
C906        H909   1.083       .  S
C910        C974   1.479       .  S
C910        C915   1.404       .  A
C911       C1010   1.405       .  A
C911        C912   1.402       .  A
C911        H916   1.084       .  S
C912        C943   1.466       .  S
C912       C1013   1.401       .  A
C913        C914   1.401       .  A
C913        H917   1.085       .  S
C914        C949   1.466       .  S
C914        C915   1.401       .  A
C915        H918   1.084       .  S
C919        C991   1.482       .  S
C919        C920   1.406       .  A
C919       C1024   1.405       .  A
C920        C921   1.402       .  A
C920        H925   1.085       .  S
C921        C947   1.466       .  S
C921        C922   1.401       .  A
C922       C1023   1.401       .  A
C922        H926   1.085       .  S
C923        C946   1.466       .  S
C923        C924   1.401       .  A
C924        H927   1.084       .  S
Fe928       O944   2.057       .  S
Fe928       O934   2.068       .  S
Fe928       O941   2.054       .  S
Fe928       O933   2.071       .  S
Fe928       O939   1.984       .  S
Fe929       O932   2.056       .  S
Fe929       O936   2.068       .  S
Fe929       O940   2.072       .  S
Fe929       O945   2.054       .  S
Fe929       O939   1.983       .  S
Fe930       O948   2.070       .  S
Fe930       O935   2.073       .  S
Fe930       O942   2.058       .  S
Fe930       O931   2.056       .  S
Fe930       O939   1.984       .  S
O931        C938   1.266       .  A
O932        C946   1.266       .  A
O933        C938   1.268       .  A
O934        C937   1.267       .  A
O935        C947   1.269       .  A
O936        C949   1.268       .  A
C937        C952   1.466       .  S
C937        O942   1.267       .  A
C938        C954   1.466       .  S
O940        C943   1.268       .  A
O941        C943   1.266       .  A
O944        C949   1.267       .  A
O945        C947   1.266       .  A
C946        O948   1.268       .  A
C950        C963   1.487       .  S
C950       C1051   1.408       .  A
C950        C955   1.407       .  A
C951        C952   1.400       .  A
C951        H956   1.084       .  S
C953       C1052   1.399       .  A
C953        C954   1.400       .  A
C953        H957   1.085       .  S
C954        C955   1.402       .  A
C955        H958   1.084       .  S
C959        C960   1.406       .  A
C959        C964   1.408       .  A
C959        H966   1.082       .  S
C960       C1061   1.413       .  A
C961        C962   1.399       .  A
C961        N968   1.435       .  S
C962        H967   1.083       .  S
C963       C1062   1.403       .  A
C963        C964   1.418       .  A
C964        N965   1.440       .  S
N965        O969   1.263       .  A
N965        O970   1.263       .  A
N968       O1371   1.263       .  A
N968        O972   1.262       .  A
O971       N1368   1.263       .  A
C973        C974   1.401       .  A
C975       C1074   1.414       .  A
C975        C976   1.404       .  A
C975        N982   1.441       .  S
C976       C1077   1.409       .  A
C976        H981   1.083       .  S
C978        N979   1.430       .  S
N979        O983   1.261       .  A
N982       O1085   1.263       .  A
N982        O986   1.263       .  A
O984       N1079   1.262       .  A
C987       C1388   1.408       .  A
C987       C1392   1.404       .  A
C987        H994   1.084       .  S
C988       C1387   1.408       .  A
C988       C1089   1.418       .  A
C989        C990   1.402       .  A
C989        N996   1.437       .  S
C990        H995   1.085       .  S
C991       C1090   1.403       .  A
C991        C992   1.414       .  A
C992       C1387   1.404       .  A
C992       N1393   1.441       .  S
N993       C1392   1.441       .  S
N993        O997   1.263       .  A
N993       O1098   1.263       .  A
N996       O1000   1.262   1_655  A
C1001      C1088   1.492       .  S
C1001      C1506   1.405   1_545  A
C1002      C1003   1.404       .  A
C1002      H1007   1.083       .  S
C1003      C1060   1.488       .  S
C1003      C1504   1.408   1_545  A
C1004      C1303   1.408       .  A
C1004      H1008   1.082       .  S
C1005      C1077   1.496       .  S
C1005      C1006   1.406       .  A
C1006      C1301   1.405       .  A
C1006      H1009   1.083       .  S
C1010      C1074   1.479       .  S
C1010      C1015   1.404       .  A
C1011      C1110   1.405       .  A
C1011      C1012   1.402       .  A
C1011      H1016   1.084       .  S
C1012      C1043   1.466       .  S
C1012      C1113   1.401       .  A
C1013      C1014   1.401       .  A
C1013      H1017   1.085       .  S
C1014      C1049   1.466       .  S
C1014      C1015   1.401       .  A
C1015      H1018   1.084       .  S
C1019      C1091   1.482       .  S
C1019      C1020   1.406       .  A
C1019      C1124   1.405       .  A
C1020      C1021   1.402       .  A
C1020      H1025   1.085       .  S
C1021      C1047   1.466       .  S
C1021      C1022   1.401       .  A
C1022      C1123   1.401       .  A
C1022      H1026   1.085       .  S
C1023      C1046   1.466       .  S
C1023      C1024   1.401       .  A
C1024      H1027   1.084       .  S
Fe1028     O1044   2.057       .  S
Fe1028     O1034   2.068       .  S
Fe1028     O1041   2.054       .  S
Fe1028     O1033   2.071       .  S
Fe1028     O1039   1.984       .  S
Fe1029     O1032   2.056       .  S
Fe1029     O1036   2.068       .  S
Fe1029     O1040   2.072       .  S
Fe1029     O1045   2.054       .  S
Fe1029     O1039   1.983       .  S
Fe1030     O1048   2.070       .  S
Fe1030     O1035   2.073       .  S
Fe1030     O1042   2.058       .  S
Fe1030     O1031   2.056       .  S
Fe1030     O1039   1.984       .  S
O1031      C1038   1.266       .  A
O1032      C1046   1.266       .  A
O1033      C1038   1.268       .  A
O1034      C1037   1.267       .  A
O1035      C1047   1.269       .  A
O1036      C1049   1.268       .  A
C1037      C1052   1.466       .  S
C1037      O1042   1.267       .  A
C1038      C1054   1.466       .  S
O1040      C1043   1.268       .  A
O1041      C1043   1.266       .  A
O1044      C1049   1.267       .  A
O1045      C1047   1.266       .  A
C1046      O1048   1.268       .  A
C1050      C1063   1.487       .  S
C1050      C1151   1.408       .  A
C1050      C1055   1.407       .  A
C1051      C1052   1.400       .  A
C1051      H1056   1.084       .  S
C1053      C1152   1.399       .  A
C1053      C1054   1.400       .  A
C1053      H1057   1.085       .  S
C1054      C1055   1.402       .  A
C1055      H1058   1.084       .  S
C1059      C1060   1.406       .  A
C1059      C1064   1.408       .  A
C1059      H1066   1.082       .  S
C1060      C1161   1.413       .  A
C1061      C1062   1.399       .  A
C1061      N1068   1.435       .  S
C1062      H1067   1.083       .  S
C1063      C1162   1.403       .  A
C1063      C1064   1.418       .  A
C1064      N1065   1.440       .  S
N1065      O1069   1.263       .  A
N1065      O1070   1.263       .  A
N1068      O1471   1.263       .  A
N1068      O1072   1.262       .  A
O1071      N1468   1.263       .  A
C1073      C1074   1.401       .  A
C1075      C1174   1.414       .  A
C1075      C1076   1.404       .  A
C1075      N1082   1.441       .  S
C1076      C1177   1.409       .  A
C1076      H1081   1.083       .  S
C1078      N1079   1.430       .  S
N1079      O1083   1.261       .  A
N1082      O1185   1.263       .  A
N1082      O1086   1.263       .  A
O1084      N1179   1.262       .  A
C1087      C1488   1.408       .  A
C1087      C1492   1.404       .  A
C1087      H1094   1.084       .  S
C1088      C1487   1.408       .  A
C1088      C1189   1.418       .  A
C1089      C1090   1.402       .  A
C1089      N1096   1.437       .  S
C1090      H1095   1.085       .  S
C1091      C1190   1.403       .  A
C1091      C1092   1.414       .  A
C1092      C1487   1.404       .  A
C1092      N1493   1.441       .  S
N1093      C1492   1.441       .  S
N1093      O1097   1.263       .  A
N1093      O1198   1.263       .  A
N1096      O1100   1.262   1_655  A
C1101      C1188   1.492       .  S
C1101      C1206   1.405   1_545  A
C1102      C1103   1.404       .  A
C1102      H1107   1.083       .  S
C1103      C1160   1.488       .  S
C1103      C1204   1.408   1_545  A
C1104      C1403   1.408       .  A
C1104      H1108   1.082       .  S
C1105      C1177   1.496       .  S
C1105      C1106   1.406       .  A
C1106      C1401   1.405       .  A
C1106      H1109   1.083       .  S
C1110      C1174   1.479       .  S
C1110      C1115   1.404       .  A
C1111      C1112   1.402       .  A
C1111      H1116   1.084       .  S
C1112      C1143   1.466       .  S
C1113      C1114   1.401       .  A
C1113      H1117   1.085       .  S
C1114      C1149   1.466       .  S
C1114      C1115   1.401       .  A
C1115      H1118   1.084       .  S
C1119      C1191   1.482       .  S
C1119      C1120   1.406   1_554  A
C1120      C1121   1.402       .  A
C1120      H1125   1.084       .  S
C1121      C1147   1.466       .  S
C1121      C1122   1.401       .  A
C1122      H1126   1.085       .  S
C1123      C1146   1.466       .  S
C1123      C1124   1.401       .  A
C1124      H1127   1.084       .  S
Fe1128     O1144   2.057       .  S
Fe1128     O1134   2.068       .  S
Fe1128     O1141   2.054       .  S
Fe1128     O1133   2.071       .  S
Fe1128     O1139   1.984       .  S
Fe1129     O1132   2.056       .  S
Fe1129     O1136   2.068       .  S
Fe1129     O1140   2.072       .  S
Fe1129     O1145   2.054       .  S
Fe1129     O1139   1.983       .  S
Fe1130     O1148   2.070       .  S
Fe1130     O1135   2.073       .  S
Fe1130     O1142   2.058       .  S
Fe1130     O1131   2.056       .  S
Fe1130     O1139   1.984       .  S
O1131      C1138   1.266       .  A
O1132      C1146   1.266       .  A
O1133      C1138   1.268       .  A
O1134      C1137   1.267       .  A
O1135      C1147   1.269       .  A
O1136      C1149   1.268       .  A
C1137      C1152   1.466       .  S
C1137      O1142   1.267       .  A
C1138      C1154   1.466       .  S
O1140      C1143   1.268       .  A
O1141      C1143   1.266       .  A
O1144      C1149   1.267       .  A
O1145      C1147   1.266       .  A
C1146      O1148   1.268       .  A
C1150      C1163   1.487       .  S
C1150      C1155   1.407       .  A
C1151      C1152   1.400       .  A
C1151      H1156   1.084       .  S
C1153      C1154   1.400       .  A
C1153      H1157   1.085       .  S
C1154      C1155   1.402       .  A
C1155      H1158   1.084       .  S
C1159      C1160   1.406       .  A
C1159      C1164   1.408       .  A
C1159      H1166   1.083       .  S
C1161      C1162   1.399       .  A
C1161      N1168   1.435       .  S
C1162      H1167   1.083       .  S
C1163      C1164   1.418       .  A
C1164      N1165   1.440       .  S
N1165      O1169   1.263       .  A
N1165      O1170   1.263       .  A
N1168      O1571   1.263       .  A
N1168      O1172   1.262       .  A
O1171      N1568   1.263       .  A
C1173      C1174   1.401       .  A
C1175      C1176   1.404       .  A
C1175      N1182   1.441       .  S
C1176      H1181   1.083       .  S
C1178      N1179   1.430       .  S
N1179      O1183   1.261       .  A
N1182      O1186   1.263       .  A
C1187      C1588   1.408   1_556  A
C1187      C1592   1.404       .  A
C1187      H1194   1.084       .  S
C1188      C1587   1.408   1_554  A
C1189      C1190   1.402       .  A
C1189      N1196   1.437       .  S
C1190      H1195   1.085       .  S
C1191      C1192   1.414   1_554  A
C1192      C1587   1.404       .  A
C1192      N1593   1.441       .  S
N1193      C1592   1.441       .  S
N1193      O1197   1.263       .  A
N1196      O1200   1.262   1_655  A
C1201      C1288   1.492       .  S
C1202      C1203   1.404       .  A
C1202      H1207   1.083       .  S
C1203      C1260   1.488       .  S
C1204      H1208   1.082       .  S
C1205      C1277   1.496       .  S
C1205      C1206   1.406   1_556  A
C1206      H1209   1.083       .  S
C1210      C1274   1.479       .  S
C1210      C1511   1.405       .  A
C1210      C1215   1.404   1_556  A
C1211      C1310   1.405       .  A
C1211      C1212   1.402       .  A
C1211      H1216   1.084       .  S
C1212      C1243   1.466       .  S
C1212      C1313   1.401       .  A
C1213      C1512   1.401       .  A
C1213      C1214   1.401   1_556  A
C1213      H1217   1.085       .  S
C1214      C1249   1.466       .  S
C1214      C1215   1.401       .  A
C1215      H1218   1.084       .  S
C1219      C1291   1.482       .  S
C1219      C1220   1.406       .  A
C1219      C1324   1.405       .  A
C1220      C1221   1.402       .  A
C1220      H1225   1.085       .  S
C1221      C1247   1.466       .  S
C1221      C1222   1.401       .  A
C1222      C1323   1.401       .  A
C1222      H1226   1.085       .  S
C1223      C1246   1.466       .  S
C1223      C1522   1.401   1_554  A
C1223      C1224   1.401       .  A
C1224      C1519   1.405       .  A
C1224      H1227   1.084       .  S
Fe1228     O1244   2.057       .  S
Fe1228     O1234   2.068       .  S
Fe1228     O1241   2.054       .  S
Fe1228     O1233   2.071       .  S
Fe1228     O1239   1.984       .  S
Fe1229     O1232   2.056       .  S
Fe1229     O1236   2.068       .  S
Fe1229     O1240   2.072       .  S
Fe1229     O1245   2.054       .  S
Fe1229     O1239   1.983       .  S
Fe1230     O1248   2.070       .  S
Fe1230     O1235   2.073       .  S
Fe1230     O1242   2.058       .  S
Fe1230     O1231   2.056       .  S
Fe1230     O1239   1.984       .  S
O1231      C1238   1.266       .  A
O1232      C1246   1.266       .  A
O1233      C1238   1.268       .  A
O1234      C1237   1.267       .  A
O1235      C1247   1.269       .  A
O1236      C1249   1.268       .  A
C1237      C1252   1.466       .  S
C1237      O1242   1.267       .  A
C1238      C1254   1.466       .  S
O1240      C1243   1.268       .  A
O1241      C1243   1.266       .  A
O1244      C1249   1.267       .  A
O1245      C1247   1.266       .  A
C1246      O1248   1.268       .  A
C1250      C1263   1.487       .  S
C1250      C1351   1.408       .  A
C1250      C1255   1.407       .  A
C1251      C1550   1.408   1_554  A
C1251      C1252   1.400       .  A
C1251      H1256   1.084       .  S
C1252      C1553   1.399   1_554  A
C1253      C1352   1.399       .  A
C1253      C1254   1.400       .  A
C1253      H1257   1.085       .  S
C1254      C1255   1.402       .  A
C1255      H1258   1.084       .  S
C1259      C1260   1.406       .  A
C1259      C1264   1.408       .  A
C1259      H1266   1.082       .  S
C1260      C1361   1.413       .  A
C1261      C1560   1.413   1_554  A
C1261      C1262   1.399       .  A
C1261      N1268   1.435       .  S
C1262      C1563   1.403   1_554  A
C1262      H1267   1.083       .  S
C1263      C1362   1.403       .  A
C1263      C1264   1.418       .  A
C1264      N1265   1.440       .  S
N1265      O1269   1.263       .  A
N1265      O1270   1.263       .  A
N1268      O1272   1.262       .  A
C1273      C1274   1.400   1_554  A
C1274      C1575   1.414       .  A
C1275      C1374   1.414       .  A
C1275      C1276   1.404       .  A
C1275      N1282   1.441       .  S
C1276      C1377   1.409       .  A
C1276      H1281   1.083       .  S
C1277      C1576   1.409       .  A
C1278      N1279   1.430       .  S
N1279      O1283   1.261       .  A
N1279      O1584   1.262       .  A
N1282      O1385   1.263       .  A
N1282      O1286   1.263       .  A
O1284      N1379   1.262       .  A
O1285      N1582   1.263       .  A
C1287      H1294   1.084   1_545  S
C1288      C1389   1.418       .  A
C1289      C1588   1.418       .  A
C1289      C1290   1.403       .  A
C1289      N1296   1.437       .  S
C1290      C1591   1.403       .  A
C1290      H1295   1.084       .  S
C1291      C1390   1.403       .  A
C1291      C1292   1.414       .  A
N1293      O1297   1.263   1_545  A
N1293      O1398   1.263   1_545  A
N1296      O1300   1.262   1_655  A
O1298      N1593   1.263   1_565  A
C1301      C1388   1.492       .  S
C1302      C1303   1.404       .  A
C1302      H1307   1.083       .  S
C1303      C1360   1.488       .  S
C1304      H1308   1.082       .  S
C1305      C1377   1.496       .  S
C1305      C1306   1.406       .  A
C1306      H1309   1.083       .  S
C1310      C1374   1.479       .  S
C1310      C1315   1.404       .  A
C1311      C1410   1.405       .  A
C1311      C1312   1.402       .  A
C1311      H1316   1.084       .  S
C1312      C1343   1.466       .  S
C1312      C1413   1.401       .  A
C1313      C1314   1.401       .  A
C1313      H1317   1.085       .  S
C1314      C1349   1.466       .  S
C1314      C1315   1.401       .  A
C1315      H1318   1.084       .  S
C1319      C1391   1.482       .  S
C1319      C1320   1.406       .  A
C1319      C1424   1.405       .  A
C1320      C1321   1.402       .  A
C1320      H1325   1.085       .  S
C1321      C1347   1.466       .  S
C1321      C1322   1.401       .  A
C1322      C1423   1.401       .  A
C1322      H1326   1.085       .  S
C1323      C1346   1.466       .  S
C1323      C1324   1.401       .  A
C1324      H1327   1.084       .  S
Fe1328     O1344   2.057       .  S
Fe1328     O1334   2.068       .  S
Fe1328     O1341   2.054       .  S
Fe1328     O1333   2.071       .  S
Fe1328     O1339   1.984       .  S
Fe1329     O1332   2.056       .  S
Fe1329     O1336   2.068       .  S
Fe1329     O1340   2.072       .  S
Fe1329     O1345   2.054       .  S
Fe1329     O1339   1.983       .  S
Fe1330     O1348   2.070       .  S
Fe1330     O1335   2.073       .  S
Fe1330     O1342   2.058       .  S
Fe1330     O1331   2.056       .  S
Fe1330     O1339   1.984       .  S
O1331      C1338   1.266       .  A
O1332      C1346   1.266       .  A
O1333      C1338   1.268       .  A
O1334      C1337   1.267       .  A
O1335      C1347   1.269       .  A
O1336      C1349   1.268       .  A
C1337      C1352   1.466       .  S
C1337      O1342   1.267       .  A
C1338      C1354   1.466       .  S
O1340      C1343   1.268       .  A
O1341      C1343   1.266       .  A
O1344      C1349   1.267       .  A
O1345      C1347   1.266       .  A
C1346      O1348   1.268       .  A
C1350      C1363   1.487       .  S
C1350      C1451   1.408       .  A
C1350      C1355   1.407       .  A
C1351      C1352   1.400       .  A
C1351      H1356   1.084       .  S
C1353      C1452   1.399       .  A
C1353      C1354   1.400       .  A
C1353      H1357   1.085       .  S
C1354      C1355   1.402       .  A
C1355      H1358   1.084       .  S
C1359      C1360   1.406       .  A
C1359      C1364   1.408       .  A
C1359      H1366   1.082       .  S
C1360      C1461   1.413       .  A
C1361      C1362   1.399       .  A
C1361      N1368   1.435       .  S
C1362      H1367   1.083       .  S
C1363      C1462   1.403       .  A
C1363      C1364   1.418       .  A
C1364      N1365   1.440       .  S
N1365      O1369   1.263       .  A
N1365      O1370   1.263       .  A
N1368      O1372   1.262       .  A
C1373      C1374   1.401       .  A
C1375      C1474   1.414       .  A
C1375      C1376   1.404       .  A
C1375      N1382   1.441       .  S
C1376      C1477   1.409       .  A
C1376      H1381   1.083       .  S
C1378      N1379   1.430       .  S
N1379      O1383   1.261       .  A
N1382      O1485   1.263       .  A
N1382      O1386   1.263       .  A
O1384      N1479   1.262       .  A
C1387      H1394   1.084   1_545  S
C1388      C1489   1.418       .  A
C1389      C1390   1.402       .  A
C1389      N1396   1.437       .  S
C1390      H1395   1.085       .  S
C1391      C1490   1.403       .  A
C1391      C1392   1.414       .  A
N1393      O1397   1.263   1_545  A
N1393      O1498   1.263   1_545  A
N1396      O1400   1.262   1_655  A
C1401      C1488   1.492       .  S
C1402      C1403   1.404       .  A
C1402      H1407   1.083       .  S
C1403      C1460   1.488       .  S
C1404      H1408   1.082       .  S
C1405      C1477   1.496       .  S
C1405      C1406   1.406       .  A
C1406      H1409   1.083       .  S
C1410      C1474   1.479       .  S
C1410      C1415   1.404       .  A
C1411      C1510   1.405       .  A
C1411      C1412   1.402       .  A
C1411      H1416   1.084       .  S
C1412      C1443   1.466       .  S
C1412      C1513   1.401       .  A
C1413      C1414   1.401       .  A
C1413      H1417   1.085       .  S
C1414      C1449   1.466       .  S
C1414      C1415   1.401       .  A
C1415      H1418   1.084       .  S
C1419      C1491   1.482       .  S
C1419      C1420   1.406       .  A
C1419      C1524   1.405       .  A
C1420      C1421   1.402       .  A
C1420      H1425   1.085       .  S
C1421      C1447   1.466       .  S
C1421      C1422   1.401       .  A
C1422      C1523   1.401       .  A
C1422      H1426   1.085       .  S
C1423      C1446   1.466       .  S
C1423      C1424   1.401       .  A
C1424      H1427   1.084       .  S
Fe1428     O1444   2.057       .  S
Fe1428     O1434   2.068       .  S
Fe1428     O1441   2.054       .  S
Fe1428     O1433   2.071       .  S
Fe1428     O1439   1.984       .  S
Fe1429     O1432   2.056       .  S
Fe1429     O1436   2.068       .  S
Fe1429     O1440   2.072       .  S
Fe1429     O1445   2.054       .  S
Fe1429     O1439   1.983       .  S
Fe1430     O1448   2.070       .  S
Fe1430     O1435   2.073       .  S
Fe1430     O1442   2.058       .  S
Fe1430     O1431   2.056       .  S
Fe1430     O1439   1.984       .  S
O1431      C1438   1.266       .  A
O1432      C1446   1.266       .  A
O1433      C1438   1.268       .  A
O1434      C1437   1.267       .  A
O1435      C1447   1.269       .  A
O1436      C1449   1.268       .  A
C1437      C1452   1.466       .  S
C1437      O1442   1.267       .  A
C1438      C1454   1.466       .  S
O1440      C1443   1.268       .  A
O1441      C1443   1.266       .  A
O1444      C1449   1.267       .  A
O1445      C1447   1.266       .  A
C1446      O1448   1.268       .  A
C1450      C1463   1.487       .  S
C1450      C1551   1.408       .  A
C1450      C1455   1.407       .  A
C1451      C1452   1.400       .  A
C1451      H1456   1.084       .  S
C1453      C1552   1.399       .  A
C1453      C1454   1.400       .  A
C1453      H1457   1.085       .  S
C1454      C1455   1.402       .  A
C1455      H1458   1.084       .  S
C1459      C1460   1.406       .  A
C1459      C1464   1.408       .  A
C1459      H1466   1.082       .  S
C1460      C1561   1.413       .  A
C1461      C1462   1.399       .  A
C1461      N1468   1.435       .  S
C1462      H1467   1.083       .  S
C1463      C1562   1.403       .  A
C1463      C1464   1.418       .  A
C1464      N1465   1.440       .  S
N1465      O1469   1.263       .  A
N1465      O1470   1.263       .  A
N1468      O1472   1.262       .  A
C1473      C1474   1.401       .  A
C1475      C1574   1.414       .  A
C1475      C1476   1.404       .  A
C1475      N1482   1.441       .  S
C1476      C1577   1.409       .  A
C1476      H1481   1.083       .  S
C1478      N1479   1.430       .  S
N1479      O1483   1.261       .  A
N1482      O1585   1.263       .  A
N1482      O1486   1.263       .  A
O1484      N1579   1.262       .  A
C1487      H1494   1.084   1_545  S
C1488      C1589   1.418       .  A
C1489      C1490   1.402       .  A
C1489      N1496   1.437       .  S
C1490      H1495   1.085       .  S
C1491      C1590   1.403       .  A
C1491      C1492   1.414       .  A
N1493      O1497   1.263   1_545  A
N1493      O1598   1.263   1_545  A
N1496      O1500   1.262   1_655  A
C1501      C1588   1.492       .  S
C1502      C1503   1.404       .  A
C1502      H1507   1.083       .  S
C1503      C1560   1.488       .  S
C1504      H1508   1.082       .  S
C1505      C1577   1.496       .  S
C1505      C1506   1.406       .  A
C1506      H1509   1.083       .  S
C1510      C1574   1.479       .  S
C1510      C1515   1.404       .  A
C1511      C1512   1.402       .  A
C1511      H1516   1.084       .  S
C1512      C1543   1.466       .  S
C1513      C1514   1.401       .  A
C1513      H1517   1.085       .  S
C1514      C1549   1.466       .  S
C1514      C1515   1.401       .  A
C1515      H1518   1.084       .  S
C1519      C1591   1.482       .  S
C1519      C1520   1.406   1_554  A
C1520      C1521   1.402       .  A
C1520      H1525   1.084       .  S
C1521      C1547   1.466       .  S
C1521      C1522   1.401       .  A
C1522      H1526   1.085       .  S
C1523      C1546   1.466       .  S
C1523      C1524   1.401       .  A
C1524      H1527   1.084       .  S
Fe1528     O1544   2.057       .  S
Fe1528     O1534   2.068       .  S
Fe1528     O1541   2.054       .  S
Fe1528     O1533   2.071       .  S
Fe1528     O1539   1.984       .  S
Fe1529     O1532   2.056       .  S
Fe1529     O1536   2.068       .  S
Fe1529     O1540   2.072       .  S
Fe1529     O1545   2.054       .  S
Fe1529     O1539   1.983       .  S
Fe1530     O1548   2.070       .  S
Fe1530     O1535   2.073       .  S
Fe1530     O1542   2.058       .  S
Fe1530     O1531   2.056       .  S
Fe1530     O1539   1.984       .  S
O1531      C1538   1.266       .  A
O1532      C1546   1.266       .  A
O1533      C1538   1.268       .  A
O1534      C1537   1.267       .  A
O1535      C1547   1.269       .  A
O1536      C1549   1.268       .  A
C1537      C1552   1.466       .  S
C1537      O1542   1.267       .  A
C1538      C1554   1.466       .  S
O1540      C1543   1.268       .  A
O1541      C1543   1.266       .  A
O1544      C1549   1.267       .  A
O1545      C1547   1.266       .  A
C1546      O1548   1.268       .  A
C1550      C1563   1.487       .  S
C1550      C1555   1.407       .  A
C1551      C1552   1.400       .  A
C1551      H1556   1.084       .  S
C1553      C1554   1.400       .  A
C1553      H1557   1.085       .  S
C1554      C1555   1.402       .  A
C1555      H1558   1.084       .  S
C1559      C1560   1.406       .  A
C1559      C1564   1.408       .  A
C1559      H1566   1.083       .  S
C1561      C1562   1.399       .  A
C1561      N1568   1.435       .  S
C1562      H1567   1.083       .  S
C1563      C1564   1.418       .  A
C1564      N1565   1.440       .  S
N1565      O1569   1.263       .  A
N1565      O1570   1.263       .  A
N1568      O1572   1.262       .  A
C1573      C1574   1.401       .  A
C1575      C1576   1.404       .  A
C1575      N1582   1.441       .  S
C1576      H1581   1.083       .  S
C1578      N1579   1.430       .  S
N1579      O1583   1.261       .  A
N1582      O1586   1.263       .  A
C1587      H1594   1.084   1_545  S
C1589      C1590   1.402       .  A
C1589      N1596   1.437       .  S
C1590      H1595   1.085       .  S
C1591      C1592   1.414   1_554  A
N1593      O1597   1.263   1_545  A
N1596      O1600   1.262   1_655  A
