geometry optimzed in LAMMPS
_audit_creation_date              2020-12-01 
_audit_creation_method            'lammps2cif' 
_symmetry_space_group_name_H-M    'P1' 
_symmetry_Int_Tables_number       1 
_symmetry_cell_setting            triclinic 
loop_ 
_symmetry_equiv_pos_as_xyz 
  x,y,z 
_cell_length_a                    37.16072574 
_cell_length_b                    37.17700860663549 
_cell_length_c                    56.371258346618276 
_cell_angle_alpha                 89.98610341822433 
_cell_angle_beta                  90.40320721103268 
_cell_angle_gamma                 89.81060754963978 
loop_ 
_atom_site_label 
_atom_site_type_symbol 
_atom_site_fract_x 
_atom_site_fract_y 
_atom_site_fract_z 
_atom_site_charge 
C1          C  0.24666847  0.50106092  0.24983548    -0.02800
C2          C  0.46521885  0.24975811  0.01332130     0.02000
C3          C  0.46466051  0.25623563  0.98875543     0.02000
C4          C  0.99749887  0.26125013  0.97683169    -0.18500
C5          C  0.03057704  0.26024107  0.98892531     0.02000
C6          C  0.03091954  0.25310578  0.01350573     0.02000
C7          C  0.99831368  0.24879303  0.02546478    -0.18500
H8          H  0.99859315  0.24465522  0.04452305     0.04000
H9          H  0.99701668  0.26515878  0.95775691     0.04000
C10         C  0.25412097  0.00570438  0.75101058    -0.02800
C11         C  0.99611343  0.24751879  0.74941094    -0.02800
C12         C  0.25085505  0.46987823  0.98938157     0.02000
C13         C  0.25327975  0.47099852  0.01431261     0.02000
C14         C  0.25383223  0.00386479  0.02549815    -0.18500
C15         C  0.25328084  0.03632717  0.01289560     0.02000
C16         C  0.24914642  0.03550069  0.98802212     0.02000
C17         C  0.24722216  0.00219120  0.97639932    -0.18500
H18         H  0.24466234  0.00152892  0.95721746     0.04000
H19         H  0.25583321  0.00449024  0.04471051     0.04000
N20         N  0.22933405  0.33359174  0.88681936    -0.06400
N21         N  0.21680338  0.35144693  0.90516958    -0.58500
N22         N  0.26460807  0.33288966  0.83260251    -0.06100
N23         N  0.27751650  0.35792955  0.81846534    -0.60600
N24         N  0.22915541  0.33414323  0.83267230    -0.05700
N25         N  0.21746022  0.36022985  0.81865825    -0.58500
N26         N  0.26466918  0.33309579  0.88716940    -0.05300
N27         N  0.27686839  0.35070018  0.90594661    -0.61000
C28         C  0.24659244  0.36203008  0.91705142     0.95800
C29         C  0.24789270  0.37472135  0.80979261     0.95600
N30         N  0.32446247  0.23477980  0.83471880    -0.06600
N31         N  0.34909065  0.22075158  0.82062641    -0.59100
N32         N  0.32308847  0.27339577  0.88797909    -0.04700
N33         N  0.34204896  0.28675052  0.90572830    -0.60300
N34         N  0.32235071  0.23814430  0.88911462    -0.06600
N35         N  0.34094952  0.22677209  0.90771184    -0.59300
N36         N  0.32498304  0.27019532  0.83347097    -0.04300
N37         N  0.34990037  0.28075200  0.81830062    -0.60400
Mn38       Mn  0.29503473  0.30308572  0.85996789     1.18400
C39         C  0.36467005  0.24960897  0.81033801     0.97900
C40         C  0.35301490  0.25745128  0.91801126     0.98500
N41         N  0.16664119  0.27475718  0.83345625    -0.06600
N42         N  0.14150698  0.28739915  0.81897287    -0.62900
N43         N  0.16845701  0.24125242  0.88851359    -0.05400
N44         N  0.15076765  0.23018861  0.90738769    -0.63600
N45         N  0.16904364  0.27654915  0.88774703    -0.06100
N46         N  0.15165617  0.29027233  0.90598013    -0.63200
N47         N  0.16600456  0.23930171  0.83385002    -0.05000
N48         N  0.14051136  0.22722629  0.81947222    -0.63900
Mn49       Mn  0.19796206  0.30537818  0.85985194     1.10700
C50         C  0.12580914  0.25748763  0.81015936     0.99100
C51         C  0.14059786  0.26107005  0.91821607     0.99200
N52         N  0.26152768  0.17989744  0.88990215    -0.06100
N53         N  0.27325249  0.16005247  0.90778146    -0.61500
N54         N  0.22632084  0.17633643  0.83531636    -0.05500
N55         N  0.21378141  0.15047567  0.82146083    -0.58200
N56         N  0.26179983  0.17544535  0.83583041    -0.06800
N57         N  0.27384200  0.14903283  0.82237060    -0.61100
N58         N  0.22618167  0.18051455  0.88942527    -0.05700
N59         N  0.21314404  0.16116752  0.90696200    -0.58300
Mn60       Mn  0.29316621  0.20644994  0.86225500     1.20200
Mn61       Mn  0.19601133  0.20872577  0.86148121     1.10100
Cl62       Cl  0.24556096  0.25585102  0.86041713    -0.86200
C63         C  0.24275287  0.14854510  0.91832586     0.96100
C64         C  0.24371790  0.13380421  0.81329609     0.95900
N65         N  0.17182351  0.23202272  0.16760202    -0.06400
N66         N  0.14761695  0.21842686  0.18207268    -0.58500
N67         N  0.17327366  0.26981258  0.11394052    -0.06100
N68         N  0.15371504  0.28272558  0.09626219    -0.60600
N69         N  0.17368737  0.23448107  0.11338244    -0.05700
N70         N  0.15438305  0.22264234  0.09528875    -0.58500
N71         N  0.17120327  0.26743443  0.16836747    -0.05300
N72         N  0.14657939  0.27855646  0.18355323    -0.61000
C73         C  0.13249133  0.24768298  0.19216004     0.95800
C74         C  0.14220723  0.25304387  0.08463936     0.95600
N75         N  0.26753115  0.33016271  0.11597111    -0.06600
N76         N  0.28064492  0.35064460  0.09910621    -0.59100
N77         N  0.23144036  0.32840873  0.16976601    -0.04700
N78         N  0.21824657  0.35188696  0.18495252    -0.60300
N79         N  0.26691455  0.32913046  0.17011402    -0.06600
N80         N  0.27839731  0.35332602  0.18554877    -0.59300
N81         N  0.23218783  0.33033528  0.11532842    -0.04300
N82         N  0.22054633  0.35119920  0.09783421    -0.60400
Mn83       Mn  0.20127492  0.29974497  0.14198214     1.18400
C84         C  0.25123701  0.36376992  0.08790757     0.97900
C85         C  0.24774967  0.36664416  0.19500536     0.98500
N86         N  0.23415768  0.17589494  0.11292260    -0.06600
N87         N  0.22250532  0.15830909  0.09402001    -0.62900
N88         N  0.26918768  0.17352686  0.16813831    -0.05400
N89         N  0.28177009  0.15024079  0.18385656    -0.63600
N90         N  0.23375674  0.17307116  0.16778011    -0.06100
N91         N  0.22161608  0.14969523  0.18342906    -0.63200
N92         N  0.26947998  0.17612867  0.11356255    -0.05000
N93         N  0.28263238  0.15872017  0.09516662    -0.63900
Mn94       Mn  0.20269760  0.20303309  0.14052205     1.10700
C95         C  0.25309070  0.14792436  0.08299595     0.99100
C96         C  0.25181983  0.13588233  0.19352246     0.99200
N97         N  0.32989596  0.26988611  0.16891233    -0.06100
N98         N  0.35601639  0.28208575  0.18272974    -0.61500
N99         N  0.32730372  0.23571982  0.11452077    -0.05500
N100        N  0.34516808  0.22339924  0.09613091    -0.58200
N101        N  0.32710031  0.27105460  0.11459631    -0.06800
N102        N  0.34498142  0.28351165  0.09614864    -0.61100
N103        N  0.32988842  0.23446144  0.16877386    -0.05700
N104        N  0.35580724  0.22197041  0.18266964    -0.58300
Mn105      Mn  0.29846511  0.30076637  0.14263473     1.20200
Mn106      Mn  0.29956654  0.20421379  0.14153530     1.10100
Cl107      Cl  0.25048122  0.25196770  0.14198241    -0.86200
C108        C  0.37181970  0.25191530  0.19131811     0.96100
C109        C  0.35598572  0.25338094  0.08469599     0.95900
N110        N  0.48161773  0.07606123  0.66605356    -0.06400
N111        N  0.46703975  0.09944797  0.68073566    -0.58500
N112        N  0.02129508  0.07507714  0.61281701    -0.06100
N113        N  0.03448363  0.09372590  0.59490410    -0.60600
N114        N  0.48595078  0.07373667  0.61176310    -0.05700
N115        N  0.47426543  0.09162092  0.59304143    -0.58500
N116        N  0.01691488  0.07705876  0.66765681    -0.05300
N117        N  0.02696132  0.10118598  0.68365223    -0.61000
C118        C  0.49545737  0.11454870  0.69189756     0.95800
C119        C  0.00487330  0.10443392  0.58257245     0.95600
N120        N  0.07945713  0.48087711  0.61504361    -0.06600
N121        N  0.09973758  0.46881634  0.59755221    -0.59100
N122        N  0.07935272  0.01598409  0.66943002    -0.04700
N123        N  0.10477287  0.02824483  0.68376286    -0.60300
N124        N  0.07794786  0.48091598  0.66941786    -0.06600
N125        N  0.10342441  0.46854592  0.68370530    -0.59300
N126        N  0.08072210  0.01573921  0.61520507    -0.04300
N127        N  0.10055150  0.02832373  0.59779258    -0.60400
Mn128      Mn  0.05028261  0.04675385  0.64160621     1.18400
C129        C  0.11312897  0.99850394  0.58684656     0.97900
C130        C  0.12035391  0.99823844  0.69288148     0.98500
N131        N  0.42748829  0.01457702  0.61008616    -0.06600
N132        N  0.41066650  0.02659885  0.59097251    -0.62900
N133        N  0.42067883  0.47923400  0.66461805    -0.05400
N134        N  0.39475587  0.46773240  0.67863992    -0.63600
N135        N  0.42146538  0.01617354  0.66437148    -0.06100
N136        N  0.39616228  0.02952953  0.67815246    -0.63200
N137        N  0.42668928  0.47801660  0.61044357    -0.05000
N138        N  0.40986989  0.46497976  0.59169155    -0.63900
Mn139      Mn  0.45358077  0.04575780  0.63820350     1.10700
C140        C  0.40021206  0.99631189  0.57960778     0.99100
C141        C  0.37981987  0.00018327  0.68720994     0.99200
N142        N  0.01759553  0.41989707  0.66831022    -0.06100
N143        N  0.02965080  0.39555532  0.68351425    -0.61500
N144        N  0.48544161  0.41946394  0.61272741    -0.05500
N145        N  0.47394882  0.40113984  0.59414365    -0.58200
N146        N  0.02035413  0.42104553  0.61390367    -0.06800
N147        N  0.03393576  0.40289414  0.59597715    -0.61100
N148        N  0.48242594  0.41830688  0.66718688    -0.05700
N149        N  0.46956803  0.39388669  0.68190025    -0.58300
Mn150      Mn  0.04942462  0.44999031  0.64185429     1.20200
Mn151      Mn  0.45305470  0.44799089  0.63906586     1.10100
Cl152      Cl  0.50193526  0.99749343  0.64079390    -0.86200
C153        C  0.49934742  0.37937541  0.69205803     0.96100
C154        C  0.00471450  0.39105863  0.58390535     0.95900
N155        N  0.47992839  0.41979741  0.33239775    -0.06400
N156        N  0.46700447  0.39668109  0.31673943    -0.58500
N157        N  0.01377527  0.42113586  0.38791083    -0.06100
N158        N  0.02516808  0.40272801  0.40653095    -0.60600
N159        N  0.47972584  0.42148818  0.38686337    -0.05700
N160        N  0.46676712  0.40289352  0.40480252    -0.58500
N161        N  0.01482273  0.41912544  0.33309944    -0.05300
N162        N  0.02661709  0.39594217  0.31714367    -0.61000
C163        C  0.49671106  0.38219297  0.30673404     0.95800
C164        C  0.99449032  0.39252220  0.41740948     0.95600
N165        N  0.07715920  0.01423937  0.38761079    -0.06600
N166        N  0.09576677  0.02645364  0.40594427    -0.59100
N167        N  0.07793043  0.47721244  0.33412668    -0.04700
N168        N  0.10208084  0.46403558  0.31935100    -0.60300
N169        N  0.07999112  0.01299814  0.33301281    -0.06600
N170        N  0.10459412  0.02444076  0.31801005    -0.59300
N171        N  0.07506986  0.47813413  0.38854992    -0.04300
N172        N  0.09366120  0.46550561  0.40679440    -0.60400
Mn173      Mn  0.04611373  0.44799491  0.36074660     1.18400
C174        C  0.10553047  0.49543246  0.41807296     0.97900
C175        C  0.11854564  0.99381095  0.30892327     0.98500
N176        N  0.42214727  0.48278623  0.38651409    -0.06600
N177        N  0.40441269  0.47143483  0.40530406    -0.62900
N178        N  0.42170487  0.01705972  0.33099629    -0.05400
N179        N  0.39745114  0.02971256  0.31586693    -0.63600
N180        N  0.42030424  0.48171850  0.33174276    -0.06100
N181        N  0.39550220  0.46968805  0.31685609    -0.63200
N182        N  0.42254544  0.01879512  0.38547485    -0.05000
N183        N  0.40523406  0.03255723  0.40373189    -0.63900
Mn184      Mn  0.44975919  0.45070076  0.35922182     1.10700
C185        C  0.39402139  0.50217942  0.41620943     0.99100
C186        C  0.38203348  0.99984739  0.30661503     0.99200
N187        N  0.02079551  0.07471402  0.33141714    -0.06100
N188        N  0.03457646  0.09790836  0.31629552    -0.61500
N189        N  0.48319370  0.07573613  0.38543797    -0.05500
N190        N  0.47052645  0.09522716  0.40308404    -0.58200
N191        N  0.01923035  0.07552969  0.38592876    -0.06800
N192        N  0.03150245  0.09429333  0.40412829    -0.61100
N193        N  0.48560556  0.07496000  0.33095314    -0.05700
N194        N  0.47510064  0.09911837  0.31514605    -0.58300
Mn195      Mn  0.04999554  0.04507036  0.35937064     1.20200
Mn196      Mn  0.45255478  0.04742477  0.35790578     1.10100
Cl197      Cl  0.49930720  0.49775844  0.35900338    -0.86200
C198        C  0.50628942  0.11175516  0.30616786     0.96100
C199        C  0.00137184  0.10691202  0.41472475     0.95900
C200        C  0.00458139  0.28084301  0.51265845     0.02000
C201        C  0.00268474  0.28161012  0.48771716     0.02000
C202        C  0.00276926  0.24911100  0.47512001    -0.18500
C203        C  0.00384350  0.21595859  0.48690454     0.02000
C204        C  0.00456611  0.21527614  0.51184989     0.02000
C205        C  0.00550953  0.24772388  0.52443590    -0.18500
H206        H  0.00628316  0.24718691  0.54368016     0.04000
H207        H  0.00162956  0.24961702  0.45588319     0.04000
C208        C  0.28561008  0.99717815  0.51157189     0.02000
C209        C  0.28411624  0.00179300  0.48681337     0.02000
C210        C  0.25055877  0.00111344  0.47534328    -0.18500
C211        C  0.21848563  0.99728544  0.48807200     0.02000
C212        C  0.21990877  0.99541768  0.51306393     0.02000
C213        C  0.25356708  0.99484564  0.52441659    -0.18500
H214        H  0.25485410  0.99287628  0.54361301     0.04000
H215        H  0.24938630  0.00308154  0.45614763     0.04000
C216        C  0.00208766  0.24811334  0.25175459    -0.02800
C217        C  0.49601144  0.35062570  0.29059071    -0.00400
C218        C  0.96843764  0.32586798  0.29332280    -0.12300
C219        C  0.96931883  0.29329344  0.28077041     0.01800
C220        C  0.49934685  0.28362770  0.26549895    -0.00500
C221        C  0.52296426  0.31263359  0.26042886    -0.12200
C222        C  0.52229448  0.34496215  0.27321004     0.01700
H223        H  0.94727366  0.33042444  0.30615575     0.14700
H224        H  0.54223026  0.31091305  0.24623973     0.14700
C225        C  0.54809445  0.37252666  0.26742068     0.36300
C226        C  0.94040341  0.26872568  0.28575931     0.36200
N227        N  0.56867756  0.39463436  0.26266353    -0.44000
N228        N  0.91637722  0.25067990  0.29089791    -0.44000
C229        C  0.50697272  0.21228903  0.26786828    -0.00400
C230        C  0.50963520  0.17879183  0.25570702    -0.12300
C231        C  0.50952239  0.14577962  0.26768717     0.01800
C232        C  0.50853425  0.14532568  0.29249303    -0.00500
C233        C  0.00837560  0.17922543  0.30477600    -0.12200
C234        C  0.00873142  0.21248212  0.29304738     0.01700
H235        H  0.50893176  0.17829301  0.23649280     0.14700
H236        H  0.00899373  0.17845440  0.32403182     0.14700
C237        C  0.01375438  0.24326320  0.30823741     0.36300
C238        C  0.50825565  0.11281617  0.25416335     0.36200
N239        N  0.01827369  0.26704743  0.32116598    -0.44000
N240        N  0.50694074  0.08639614  0.24334162    -0.44000
C241        C  0.00160983  0.13121171  0.43567764    -0.00400
C242        C  0.03445368  0.14679184  0.44260671    -0.12300
C243        C  0.03603211  0.17218611  0.46084747     0.01800
C244        C  0.00427659  0.18308608  0.47223566    -0.00500
C245        C  0.47057827  0.16631497  0.46607995    -0.12200
C246        C  0.46872300  0.14033753  0.44809034     0.01700
H247        H  0.05892354  0.14014295  0.43321831     0.14700
H248        H  0.44607605  0.17579069  0.47440312     0.14700
C249        C  0.43381448  0.12576421  0.44218858     0.36300
C250        C  0.07040357  0.18756246  0.46719696     0.36200
N251        N  0.40573789  0.11419903  0.43759098    -0.44000
N252        N  0.09794400  0.19971916  0.47247121    -0.44000
C253        C  0.99374480  0.36851818  0.43840657    -0.00400
C254        C  0.02541037  0.36451073  0.45196588    -0.12300
C255        C  0.02829900  0.33794171  0.46947373     0.01800
C256        C  0.99883692  0.31524488  0.47393783    -0.00500
C257        C  0.46741912  0.32209525  0.46272520    -0.12200
C258        C  0.46490558  0.34779628  0.44465639     0.01700
H259        H  0.04866259  0.38101541  0.44810483     0.14700
H260        H  0.44373848  0.30689462  0.46766463     0.14700
C261        C  0.43028207  0.35266343  0.43329936     0.36300
C262        C  0.06263720  0.33277000  0.48110684     0.36200
N263        N  0.40240438  0.35643317  0.42433432    -0.44000
N264        N  0.09042890  0.32900724  0.49017759    -0.44000
C265        C  0.13037046  0.49483981  0.43883426    -0.00400
C266        C  0.15064655  0.46350069  0.44298344    -0.12300
C267        C  0.17784789  0.46279113  0.46020501     0.01800
C268        C  0.18484575  0.99434693  0.47407385    -0.00500
C269        C  0.16278080  0.02467794  0.47128542    -0.12200
C270        C  0.13608647  0.02566843  0.45355049     0.01700
H271        H  0.14681457  0.44009429  0.43178226     0.14700
H272        H  0.16776277  0.04831394  0.48208729     0.14700
C273        C  0.11489205  0.05803205  0.45114476     0.36300
C274        C  0.20078504  0.43139748  0.46172350     0.36200
N275        N  0.09803367  0.08411044  0.44936618    -0.44000
N276        N  0.21947466  0.40648692  0.46287301    -0.44000
C277        C  0.37009887  0.50368532  0.43708867    -0.00400
C278        C  0.34802501  0.03518411  0.43978970    -0.12300
C279        C  0.32139999  0.03566362  0.45718941     0.01800
C280        C  0.31672665  0.00550294  0.47202653    -0.00500
C281        C  0.34131153  0.47561048  0.47106034    -0.12200
C282        C  0.36872972  0.47582654  0.45411326     0.01700
H283        H  0.35007515  0.05774242  0.42768153     0.14700
H284        H  0.33911561  0.45309953  0.48319351     0.14700
C285        C  0.39599395  0.44820639  0.45532978     0.36300
C286        C  0.29867618  0.06709203  0.45921672     0.36200
N287        N  0.41833221  0.42658192  0.45685149    -0.44000
N288        N  0.28054324  0.09231212  0.46092259    -0.44000
C289        C  0.18780170  0.99715059  0.52847416    -0.00400
C290        C  0.18348690  0.02831629  0.54215232    -0.12300
C291        C  0.15968391  0.02929763  0.56121976     0.01800
C292        C  0.13811216  0.99900710  0.56634510    -0.00500
C293        C  0.14123970  0.46831780  0.55269036    -0.12200
C294        C  0.16638736  0.46677743  0.53422291     0.01700
H295        H  0.20074681  0.05126634  0.53889175     0.14700
H296        H  0.12562316  0.44456422  0.55680409     0.14700
C297        C  0.17210654  0.43291576  0.52233399     0.36300
C298        C  0.16077726  0.06053202  0.57642939     0.36200
N299        N  0.17659781  0.40547011  0.51312904    -0.44000
N300        N  0.16194654  0.08548299  0.58868484    -0.44000
C301        C  0.37614547  0.99562591  0.55856847    -0.00400
C302        C  0.35585828  0.46208779  0.55429557    -0.12300
C303        C  0.32778163  0.46171766  0.53777189     0.01800
C304        C  0.31980038  0.99496096  0.52496921    -0.00500
C305        C  0.34071650  0.02591397  0.52794562    -0.12200
C306        C  0.36897078  0.02646634  0.54452589     0.01700
H307        H  0.36084557  0.43822212  0.56489838     0.14700
H308        H  0.33387484  0.05011550  0.51812435     0.14700
C309        C  0.38963738  0.05908780  0.54684820     0.36300
C310        C  0.30714631  0.42913734  0.53479968     0.36200
N311        N  0.40619647  0.08527842  0.54849655    -0.44000
N312        N  0.29058616  0.40307898  0.53234958    -0.44000
C313        C  0.00483644  0.12876767  0.56164032    -0.00400
C314        C  0.47231864  0.14589907  0.55608448    -0.12300
C315        C  0.47120594  0.17228365  0.53847022     0.01800
C316        C  0.00301677  0.18172930  0.52576349    -0.00500
C317        C  0.03489061  0.16285978  0.53057761    -0.12200
C318        C  0.03601318  0.13630220  0.54824199     0.01700
H319        H  0.44825413  0.14093768  0.56631403     0.14700
H320        H  0.05928309  0.17002279  0.52125913     0.14700
C321        C  0.06952286  0.11758141  0.55214396     0.36300
C322        C  0.43782697  0.19123315  0.53407313     0.36200
N323        N  0.09654145  0.10260839  0.55490731    -0.44000
N324        N  0.41111825  0.20641578  0.53044716    -0.44000
C325        C  0.00480290  0.31365980  0.52731894    -0.00400
C326        C  0.03743322  0.32454172  0.53747312    -0.12300
C327        C  0.03850223  0.35151540  0.55469837     0.01800
C328        C  0.00596965  0.36692405  0.56293532    -0.00500
C329        C  0.47223786  0.35288574  0.55350495    -0.12200
C330        C  0.47143524  0.32634208  0.53592201     0.01700
H331        H  0.06210248  0.31092283  0.53251241     0.14700
H332        H  0.44704007  0.36190961  0.56108345     0.14700
C333        C  0.43722883  0.31142444  0.52870541     0.36300
C334        C  0.07337530  0.36167726  0.56391407     0.36200
N335        N  0.40993011  0.29924812  0.52291055    -0.44000
N336        N  0.10143145  0.36981669  0.57112025    -0.44000
C337        C  0.09993542  0.24616615  0.20696820    -0.00400
C338        C  0.10285693  0.25242694  0.23125417    -0.12300
C339        C  0.07249864  0.25160367  0.24589099     0.01800
C340        C  0.03712771  0.24698897  0.23600756    -0.00500
C341        C  0.03539346  0.23818414  0.21150933    -0.12200
C342        C  0.06612159  0.23774812  0.19720091     0.01700
H343        H  0.12921737  0.25761567  0.23890711     0.14700
H344        H  0.01024972  0.23051602  0.20323673     0.14700
C345        C  0.06233446  0.22852604  0.17241604     0.36300
C346        C  0.07932139  0.25705597  0.27085076     0.36200
N347        N  0.05947797  0.22098355  0.15257675    -0.44000
N348        N  0.08674731  0.26197134  0.29054813    -0.44000
C349        C  0.46731321  0.24545263  0.23626819    -0.00400
C350        C  0.46283859  0.27365366  0.21951281    -0.12300
C351        C  0.43239474  0.27655449  0.20479854     0.01800
C352        C  0.40455863  0.25110695  0.20651792    -0.00500
C353        C  0.40800608  0.22333823  0.22299196    -0.12200
C354        C  0.43790608  0.22049808  0.23815105     0.01700
H355        H  0.48388483  0.29356818  0.21765489     0.14700
H356        H  0.38617407  0.20416047  0.22464154     0.14700
C357        C  0.43407002  0.19333831  0.25625109     0.36300
C358        C  0.43141976  0.30502585  0.18737949     0.36200
N359        N  0.42917148  0.17154985  0.27053968    -0.44000
N360        N  0.43096923  0.32781748  0.17339013    -0.44000
C361        C  0.25455568  0.12407346  0.06194272    -0.00400
C362        C  0.28545383  0.10281261  0.05888986    -0.12300
C363        C  0.28645199  0.07578356  0.04173693     0.01800
C364        C  0.25635095  0.06997746  0.02684186    -0.00500
C365        C  0.22661817  0.09316736  0.02841600    -0.12200
C366        C  0.22547107  0.12013644  0.04581816     0.01700
H367        H  0.30826671  0.10585243  0.07081750     0.14700
H368        H  0.20347359  0.08891048  0.01693990     0.14700
C369        C  0.19408927  0.14303110  0.04679875     0.36300
C370        C  0.31797544  0.05299593  0.04062193     0.36200
N371        N  0.16894842  0.16143703  0.04743715    -0.44000
N372        N  0.34311501  0.03460078  0.03975655    -0.44000
C373        C  0.25377242  0.43873620  0.02959712    -0.00400
C374        C  0.28477137  0.43267327  0.04328831    -0.12300
C375        C  0.28436894  0.40915220  0.06258191     0.01800
C376        C  0.25285243  0.38929990  0.06768745    -0.00500
C377        C  0.22210379  0.39467891  0.05347524    -0.12200
C378        C  0.22207807  0.41970479  0.03487342     0.01700
H379        H  0.30866178  0.44857557  0.03995279     0.14700
H380        H  0.19762546  0.38028116  0.05743311     0.14700
C381        C  0.18849012  0.42761505  0.02293837     0.36300
C382        C  0.31557232  0.40902147  0.07801115     0.36200
N383        N  0.16133785  0.43406492  0.01367547    -0.44000
N384        N  0.34054424  0.40940130  0.09039883    -0.44000
C385        C  0.24650775  0.06835462  0.97331568    -0.00400
C386        C  0.21407874  0.07502992  0.96124647    -0.12300
C387        C  0.21166785  0.10168264  0.94379832     0.01800
C388        C  0.24229183  0.12262652  0.93833021    -0.00500
C389        C  0.27431489  0.11683918  0.95122859    -0.12200
C390        C  0.27673714  0.08979180  0.96844112     0.01700
H391        H  0.19095566  0.05813659  0.96475357     0.14700
H392        H  0.29802672  0.13261641  0.94727117     0.14700
C393        C  0.31120251  0.08294823  0.97951355     0.36300
C394        C  0.17810199  0.10496017  0.93088973     0.36200
N395        N  0.33908573  0.07766570  0.98810952    -0.44000
N396        N  0.15115459  0.10746374  0.92058613    -0.44000
C397        C  0.24904421  0.43615875  0.97561726    -0.00400
C398        C  0.21614380  0.42727482  0.96499891    -0.12300
C399        C  0.21417767  0.40152845  0.94700905     0.01800
C400        C  0.24611373  0.38491001  0.93868588    -0.00500
C401        C  0.27876796  0.39225399  0.95047755    -0.12200
C402        C  0.28042696  0.41759336  0.96886090     0.01700
H403        H  0.19210334  0.44204054  0.96989953     0.14700
H404        H  0.30334210  0.37924470  0.94475058     0.14700
C405        C  0.31493120  0.42583017  0.97941865     0.36300
C406        C  0.17909409  0.39440400  0.93690142     0.36200
N407        N  0.34263369  0.43230410  0.98786543    -0.44000
N408        N  0.15082240  0.38882764  0.92900347    -0.44000
C409        C  0.49403070  0.20910667  0.73715359    -0.00400
C410        C  0.46558018  0.20249749  0.72095102    -0.12300
C411        C  0.46471672  0.17159848  0.70663026     0.01800
C412        C  0.49248882  0.14562429  0.70846683    -0.00500
C413        C  0.01766416  0.14973501  0.72643797    -0.12200
C414        C  0.01743161  0.17954872  0.74170895     0.01700
H415        H  0.44515785  0.22293737  0.71817786     0.14700
H416        H  0.03663013  0.12796258  0.72959637     0.14700
C417        C  0.03801926  0.17528639  0.76336301     0.36300
C418        C  0.43641120  0.16890029  0.68904769     0.36200
N419        N  0.05452415  0.17097665  0.78063261    -0.44000
N420        N  0.41369155  0.16682513  0.67497077    -0.44000
C421        C  0.49775674  0.28031810  0.73277098    -0.00400
C422        C  0.99644650  0.31538724  0.74406441    -0.12300
C423        C  0.99577073  0.34782986  0.73140340     0.01800
C424        C  0.49902578  0.34619266  0.70644493    -0.00500
C425        C  0.50290030  0.31316798  0.69497263    -0.12200
C426        C  0.50254864  0.28049118  0.70749301     0.01700
H427        H  0.99316059  0.31661738  0.76313296     0.14700
H428        H  0.50638763  0.31298838  0.67586087     0.14700
C429        C  0.50927478  0.24919817  0.69307851     0.36300
C430        C  0.99026578  0.38110922  0.74406819     0.36200
N431        N  0.51522121  0.22520503  0.68059261    -0.44000
N432        N  0.98555478  0.40778843  0.75416756    -0.44000
C433        C  0.03076148  0.25183507  0.76540501    -0.00400
C434        C  0.02837406  0.26258520  0.78951183    -0.12300
C435        C  0.05894240  0.26517716  0.80419354     0.01800
C436        C  0.09325071  0.25782160  0.79501831    -0.00500
C437        C  0.09666513  0.25023908  0.77098325    -0.12200
C438        C  0.06642449  0.24817323  0.75605494     0.01700
H439        H  0.00279189  0.26975689  0.79719540     0.14700
H440        H  0.12331126  0.24546103  0.76383755     0.14700
C441        C  0.07394683  0.23929198  0.73169922     0.36300
C442        C  0.05441478  0.27515152  0.82875338     0.36200
N443        N  0.08247461  0.23139555  0.71269658    -0.44000
N444        N  0.05079853  0.28320946  0.84842375    -0.44000
C445        C  0.45893728  0.24780279  0.76441121    -0.00400
C446        C  0.45529107  0.22311421  0.78338898    -0.12300
C447        C  0.42521222  0.22313972  0.79838711     0.01800
C448        C  0.39664576  0.24758245  0.79448269    -0.00500
C449        C  0.39830178  0.27022501  0.77474551    -0.12200
C450        C  0.42770297  0.26943834  0.75915753     0.01700
H451        H  0.47698727  0.20439063  0.78714406     0.14700
H452        H  0.37550298  0.28762923  0.77084697     0.14700
C453        C  0.42201668  0.28837363  0.73705853     0.36300
C454        C  0.42536680  0.19896187  0.81842590     0.36200
N455        N  0.41652388  0.30362091  0.71948525    -0.44000
N456        N  0.42558894  0.17966977  0.83454094    -0.44000
C457        C  0.34721981  0.00218802  0.70236126    -0.00400
C458        C  0.34177383  0.03303982  0.71611213    -0.12300
C459        C  0.31189498  0.03680111  0.73102465     0.01800
C460        C  0.28656286  0.00802412  0.73334653    -0.00500
C461        C  0.28967611  0.47779539  0.71621803    -0.12200
C462        C  0.31999932  0.47377520  0.70178746     0.01700
H463        H  0.36114984  0.05476652  0.71511812     0.14700
H464        H  0.27005146  0.45628645  0.71633915     0.14700
C465        C  0.32295946  0.44170322  0.68748087     0.36300
C466        C  0.30807986  0.07187309  0.74165579     0.36200
N467        N  0.32540904  0.41589115  0.67612333    -0.44000
N468        N  0.30600851  0.10059902  0.74947716    -0.44000
C469        C  0.21994385  0.00267248  0.73417859    -0.00400
C470        C  0.19829277  0.47020558  0.73204025    -0.12300
C471        C  0.16560602  0.46842619  0.71951995     0.01800
C472        C  0.15441122  0.99852397  0.70701695    -0.00500
C473        C  0.17621277  0.02915015  0.70615831    -0.12200
C474        C  0.20879803  0.03119739  0.71877676     0.01700
H475        H  0.20716989  0.44584207  0.74076665     0.14700
H476        H  0.16792645  0.05183008  0.69528196     0.14700
C477        C  0.22886761  0.06403493  0.71594688     0.36300
C478        C  0.14528106  0.43541675  0.72074659     0.36200
N479        N  0.24338522  0.09111742  0.71293663    -0.44000
N480        N  0.12915358  0.40888797  0.72180663    -0.44000
C481        C  0.25050862  0.03831922  0.76873474    -0.00400
C482        C  0.21801472  0.05846420  0.77031619    -0.12300
C483        C  0.21485692  0.08917016  0.78461484     0.01800
C484        C  0.24402907  0.10016929  0.79890021    -0.00500
C485        C  0.27449517  0.07791685  0.79999871    -0.12200
C486        C  0.27760734  0.04696691  0.78590259     0.01700
H487        H  0.19417000  0.05046945  0.76067943     0.14700
H488        H  0.29640474  0.08482567  0.81195943     0.14700
C489        C  0.31024747  0.02637838  0.78905766     0.36300
C490        C  0.18131554  0.10890013  0.78391624     0.36200
N491        N  0.33713000  0.01148902  0.79263349    -0.44000
N492        N  0.15430264  0.12447271  0.78329627    -0.44000
C493        C  0.25584538  0.47132769  0.76671530    -0.00400
C494        C  0.22630461  0.46592043  0.78211101    -0.12300
C495        C  0.22285323  0.43501820  0.79607917     0.01800
C496        C  0.24948978  0.40800720  0.79530581    -0.00500
C497        C  0.28029988  0.41412521  0.78185863    -0.12200
C498        C  0.28456929  0.44546854  0.76839651     0.01700
H499        H  0.20478174  0.48566265  0.78255825     0.14700
H500        H  0.30192437  0.39441899  0.78233274     0.14700
C501        C  0.32031251  0.45018172  0.75904787     0.36300
C502        C  0.19241966  0.43279681  0.81178610     0.36200
N503        N  0.34954414  0.45288776  0.75230903    -0.44000
N504        N  0.16816822  0.43139139  0.82451846    -0.44000
C505        C  0.06419718  0.25175363  0.02790677    -0.00400
C506        C  0.08143925  0.28402618  0.03362379    -0.12300
C507        C  0.10768652  0.28517977  0.05155167     0.01800
C508        C  0.11721818  0.25332164  0.06396767    -0.00500
C509        C  0.10114756  0.22071947  0.05713923    -0.12200
C510        C  0.07481828  0.21974458  0.03935551     0.01700
H511        H  0.07293334  0.30871786  0.02494633     0.14700
H512        H  0.10805028  0.19600132  0.06632654     0.14700
C513        C  0.05819316  0.18576125  0.03359599     0.36300
C514        C  0.12305824  0.31971696  0.05724770     0.36200
N515        N  0.04492406  0.15853850  0.02890855    -0.44000
N516        N  0.13494250  0.34761533  0.06179997    -0.44000
C517        C  0.37972323  0.25237880  0.06362328    -0.00400
C518        C  0.39651917  0.21953988  0.05800265    -0.12300
C519        C  0.42270514  0.21753704  0.04041351     0.01800
C520        C  0.43222307  0.24867329  0.02775661    -0.00500
C521        C  0.41372609  0.28091096  0.03200033    -0.12200
C522        C  0.38756329  0.28303245  0.04972879     0.01700
H523        H  0.39043015  0.19548574  0.06806713     0.14700
H524        H  0.42102661  0.30492014  0.02222923     0.14700
C525        C  0.36962041  0.31701824  0.05318067     0.36300
C526        C  0.44041395  0.18350057  0.03633533     0.36200
N527        N  0.35529722  0.34441736  0.05557292    -0.44000
N528        N  0.45444620  0.15609272  0.03322007    -0.44000
C529        C  0.11718978  0.26292391  0.93937877    -0.00400
C530        C  0.09531253  0.29343511  0.94238067    -0.12300
C531        C  0.06871663  0.29425257  0.95979816     0.01800
C532        C  0.06374591  0.26418513  0.97470808    -0.00500
C533        C  0.08762851  0.23503978  0.97313931    -0.12200
C534        C  0.11438506  0.23427334  0.95576573     0.01700
H535        H  0.09767494  0.31603607  0.93033019     0.14700
H536        H  0.08418832  0.21198055  0.98467577     0.14700
C537        C  0.13855154  0.20385292  0.95531777     0.36300
C538        C  0.04576977  0.32560216  0.96136913     0.36200
N539        N  0.15806569  0.17955027  0.95529828    -0.44000
N540        N  0.02722425  0.35059502  0.96257297    -0.44000
C541        C  0.43114082  0.25657457  0.97462107    -0.00400
C542        C  0.41788829  0.28954582  0.96630420    -0.12300
C543        C  0.39132679  0.29083721  0.94858726     0.01800
C544        C  0.37753604  0.25837387  0.93893468    -0.00500
C545        C  0.38950143  0.22546694  0.94847492    -0.12200
C546        C  0.41638067  0.22434666  0.96591536     0.01700
H547        H  0.42971121  0.31432682  0.97282852     0.14700
H548        H  0.37925909  0.20032835  0.94144618     0.14700
C549        C  0.43061477  0.18979998  0.97304303     0.36300
C550        C  0.38043020  0.32587726  0.94005977     0.36200
N551        N  0.44220974  0.16204161  0.97844529    -0.44000
N552        N  0.37211067  0.35410217  0.93325788    -0.44000
C553        C  0.34948437  0.00029360  0.29114595    -0.00400
C554        C  0.32396454  0.02771769  0.29401092    -0.12300
C555        C  0.29156097  0.02805736  0.28105134     0.01800
C556        C  0.28354187  0.00029366  0.26428660    -0.00500
C557        C  0.30948872  0.47393042  0.26190367    -0.12200
C558        C  0.34156362  0.47347613  0.27509005     0.01700
H559        H  0.32894591  0.04872352  0.30696901     0.14700
H560        H  0.30723769  0.45398498  0.24808543     0.14700
C561        C  0.36796076  0.44597940  0.26993625     0.36300
C562        C  0.26691912  0.05717855  0.28601211     0.36200
N563        N  0.38908765  0.42398826  0.26572538    -0.44000
N564        N  0.24753081  0.08063368  0.29041733    -0.44000
C565        C  0.15090184  0.99294419  0.29393129    -0.00400
C566        C  0.14724875  0.99730419  0.26949933    -0.12300
C567        C  0.17748608  0.99866009  0.25477505     0.01800
C568        C  0.21318528  0.99783567  0.26462495    -0.00500
C569        C  0.21444376  0.49038851  0.29022295    -0.12200
C570        C  0.18397955  0.48820079  0.30465857     0.01700
H571        H  0.12046060  0.99964386  0.26184136     0.14700
H572        H  0.24015970  0.48515602  0.29859519     0.14700
C573        C  0.18871974  0.48126040  0.32970360     0.36300
C574        C  0.17002775  0.00187754  0.22971362     0.36200
N575        N  0.19238129  0.47570250  0.34977727    -0.44000
N576        N  0.16203299  0.00461462  0.20991949    -0.44000
C577        C  0.24972434  0.03747826  0.23489417    -0.00400
C578        C  0.22327932  0.06470388  0.23800230    -0.12300
C579        C  0.22388509  0.09710604  0.22534150     0.01800
C580        C  0.25211830  0.10422707  0.20957434    -0.00500
C581        C  0.28042912  0.07943566  0.20800242    -0.12200
C582        C  0.27972953  0.04666421  0.22032409     0.01700
H583        H  0.20202249  0.06174056  0.25076446     0.14700
H584        H  0.30263706  0.08489522  0.19615591     0.14700
C585        C  0.30930989  0.02227827  0.21597822     0.36300
C586        C  0.19576968  0.12319597  0.22964832     0.36200
N587        N  0.33317621  0.00323794  0.21188373    -0.44000
N588        N  0.17327179  0.14404653  0.23326741    -0.44000
C589        C  0.24422396  0.46673908  0.23367426    -0.00400
C590        C  0.24345232  0.43304371  0.24563928    -0.12300
C591        C  0.24487250  0.40027780  0.23352036     0.01000
C592        C  0.24626876  0.40013920  0.20874301    -0.00500
C593        C  0.24390149  0.43260141  0.19639832    -0.12200
C594        C  0.24182700  0.46562297  0.20829225     0.01700
H595        H  0.24353027  0.43233893  0.26485924     0.14700
H596        H  0.24288249  0.43201068  0.17714352     0.14700
C597        C  0.23459440  0.49627164  0.19327160     0.36300
C598        C  0.24510904  0.36713896  0.24687790     0.36200
N599        N  0.22831509  0.52002377  0.18059268    -0.44000
N600        N  0.24519215  0.34057037  0.25757868    -0.44000
C601        C  0.24790031  0.00085092  0.24877082    -0.02800
C602        C  0.46509459  0.74939261  0.01312308     0.02000
C603        C  0.46463549  0.75626879  0.98860683     0.02000
C604        C  0.99758677  0.76010869  0.97643410    -0.18500
C605        C  0.03077043  0.75861737  0.98842586     0.02000
C606        C  0.03116335  0.75104955  0.01297204     0.02000
C607        C  0.99857101  0.74696545  0.02497671    -0.18500
H608        H  0.99892089  0.74256428  0.04400928     0.04000
H609        H  0.99697603  0.76411264  0.95737065     0.04000
C610        C  0.25343712  0.50511447  0.74984811    -0.02800
C611        C  0.99484213  0.74755310  0.74948745    -0.02800
C612        C  0.24900478  0.96971636  0.98901282     0.02000
C613        C  0.25176173  0.97060947  0.01394985     0.02000
C614        C  0.25575293  0.50431233  0.02570768    -0.18500
C615        C  0.25585282  0.53657051  0.01293081     0.02000
C616        C  0.25192450  0.53553472  0.98808371     0.02000
C617        C  0.24975336  0.50219778  0.97659685    -0.18500
H618        H  0.24729783  0.50139466  0.95741011     0.04000
H619        H  0.25752184  0.50515217  0.04492762     0.04000
N620        N  0.22923775  0.83237759  0.88665910    -0.06400
N621        N  0.21658466  0.85017246  0.90501346    -0.58500
N622        N  0.26472087  0.83202634  0.83247491    -0.06100
N623        N  0.27771916  0.85732496  0.81858054    -0.60600
N624        N  0.22926399  0.83324481  0.83245541    -0.05700
N625        N  0.21767397  0.85960370  0.81861968    -0.58500
N626        N  0.26457214  0.83190929  0.88709240    -0.05300
N627        N  0.27663171  0.84948708  0.90593448    -0.61000
C628        C  0.24628226  0.86075022  0.91701060     0.95800
C629        C  0.24817068  0.87427476  0.80995173     0.95600
N630        N  0.32465509  0.73398522  0.83426905    -0.06600
N631        N  0.34939251  0.72004981  0.82022743    -0.59100
N632        N  0.32317512  0.77231415  0.88764150    -0.04700
N633        N  0.34211041  0.78568422  0.90538543    -0.60300
N634        N  0.32268737  0.73705061  0.88865239    -0.06600
N635        N  0.34145591  0.72568700  0.90719201    -0.59300
N636        N  0.32518491  0.76941081  0.83317005    -0.04300
N637        N  0.35023219  0.78007073  0.81812602    -0.60400
Mn638      Mn  0.29507842  0.80209085  0.85976392     1.18400
C639        C  0.36505382  0.74897757  0.81010744     0.97900
C640        C  0.35334885  0.75640243  0.91755850     0.98500
N641        N  0.16652817  0.77364031  0.83311317    -0.06600
N642        N  0.14115705  0.78634652  0.81881629    -0.62900
N643        N  0.16878827  0.73993517  0.88822177    -0.05400
N644        N  0.15125196  0.72893899  0.90718535    -0.63600
N645        N  0.16924560  0.77523525  0.88736257    -0.06100
N646        N  0.15194298  0.78903082  0.90558951    -0.63200
N647        N  0.16579243  0.73817348  0.83351932    -0.05000
N648        N  0.13998656  0.72619783  0.81931575    -0.63900
Mn649      Mn  0.19801297  0.80421205  0.85953631     1.10700
C650        C  0.12517499  0.75650675  0.81010190     0.99100
C651        C  0.14107738  0.75989729  0.91793508     0.99200
N652        N  0.26216337  0.67873125  0.88921993    -0.06100
N653        N  0.27427820  0.65913600  0.90709069    -0.61500
N654        N  0.22653649  0.67536906  0.83470132    -0.05500
N655        N  0.21398386  0.64978160  0.82062498    -0.58200
N656        N  0.26202658  0.67454710  0.83514040    -0.06800
N657        N  0.27404951  0.64842833  0.82141349    -0.61100
N658        N  0.22681474  0.67916758  0.88892301    -0.05700
N659        N  0.21416754  0.65987428  0.90662517    -0.58300
Mn660      Mn  0.29348233  0.70545804  0.86166214     1.20200
Mn661      Mn  0.19623174  0.70748449  0.86106259     1.10100
Cl662      Cl  0.24570457  0.75474982  0.86001380    -0.86200
C663        C  0.24404380  0.64753677  0.91786622     0.96100
C664        C  0.24390708  0.63333258  0.81224392     0.95900
N665        N  0.17244400  0.73077552  0.16719481    -0.06400
N666        N  0.14846703  0.71717700  0.18182370    -0.58500
N667        N  0.17382390  0.76778585  0.11334809    -0.06100
N668        N  0.15402583  0.78046039  0.09572660    -0.60600
N669        N  0.17434604  0.73245573  0.11293393    -0.05700
N670        N  0.15481483  0.72038840  0.09498004    -0.58500
N671        N  0.17164688  0.76619760  0.16779184    -0.05300
N672        N  0.14705590  0.77732154  0.18300860    -0.61000
C673        C  0.13323164  0.74643700  0.19181872     0.95800
C674        C  0.14242474  0.75068547  0.08426779     0.95600
N675        N  0.26797166  0.82839124  0.11490447    -0.06600
N676        N  0.28102465  0.84866127  0.09788366    -0.59100
N677        N  0.23165645  0.82780861  0.16873522    -0.04700
N678        N  0.21845395  0.85163447  0.18370062    -0.60300
N679        N  0.26712552  0.82857810  0.16909301    -0.06600
N680        N  0.27861654  0.85305832  0.18431109    -0.59300
N681        N  0.23262149  0.82840445  0.11423209    -0.04300
N682        N  0.22093296  0.84891149  0.09656797    -0.60400
Mn683      Mn  0.20167903  0.79830224  0.14117591     1.18400
C684        C  0.25156474  0.86145971  0.08654867     0.97900
C685        C  0.24798623  0.86659625  0.19361570     0.98500
N686        N  0.23553664  0.67448957  0.11308093    -0.06600
N687        N  0.22427896  0.65728850  0.09393893    -0.62900
N688        N  0.26987138  0.67275085  0.16850883    -0.05400
N689        N  0.28229321  0.64960243  0.18437882    -0.63600
N690        N  0.23445005  0.67214799  0.16790385    -0.06100
N691        N  0.22214555  0.64886669  0.18354741    -0.63200
N692        N  0.27084793  0.67480651  0.11399397    -0.05000
N693        N  0.28439987  0.65787888  0.09555210    -0.63900
Mn694      Mn  0.20354170  0.70160569  0.14035591     1.10700
C695        C  0.25511143  0.64727144  0.08308308     0.99100
C696        C  0.25222454  0.63524132  0.19388957     0.99200
N697        N  0.33011881  0.76957355  0.16879973    -0.06100
N698        N  0.35603334  0.78216135  0.18263670    -0.61500
N699        N  0.32836674  0.73424314  0.11475949    -0.05500
N700        N  0.34613587  0.72169025  0.09638445    -0.58200
N701        N  0.32780336  0.76956008  0.11449219    -0.06800
N702        N  0.34531229  0.78179382  0.09585416    -0.61100
N703        N  0.33019427  0.73414900  0.16903518    -0.05700
N704        N  0.35596254  0.72205150  0.18318581    -0.58300
Mn705      Mn  0.29885193  0.79973157  0.14204174     1.20200
Mn706      Mn  0.30044243  0.70322231  0.14190669     1.10100
Cl707      Cl  0.25109423  0.75075462  0.14169528    -0.86200
C708        C  0.37179224  0.75222549  0.19161880     0.96100
C709        C  0.35648037  0.75156072  0.08462675     0.95900
N710        N  0.48005628  0.57535417  0.66610357    -0.06400
N711        N  0.46542662  0.59907275  0.68056620    -0.58500
N712        N  0.01910824  0.57485118  0.61280640    -0.06100
N713        N  0.03209305  0.59324141  0.59471661    -0.60600
N714        N  0.48480523  0.57320850  0.61186376    -0.05700
N715        N  0.47320379  0.59118502  0.59316342    -0.58500
N716        N  0.01491084  0.57706146  0.66771550    -0.05300
N717        N  0.02493584  0.60112835  0.68375428    -0.61000
C718        C  0.49384662  0.61418558  0.69176467     0.95800
C719        C  0.00235040  0.60353070  0.58237124     0.95600
N720        N  0.08087173  0.98037450  0.61502579    -0.06600
N721        N  0.10089574  0.96822216  0.59743628    -0.59100
N722        N  0.07774175  0.51637352  0.66945439    -0.04700
N723        N  0.10330134  0.52855512  0.68371308    -0.60300
N724        N  0.07956686  0.98051421  0.66941901    -0.06600
N725        N  0.10500075  0.96823951  0.68381149    -0.59300
N726        N  0.07918471  0.51623723  0.61521494    -0.04300
N727        N  0.09919223  0.52890688  0.59789530    -0.60400
Mn728      Mn  0.04842558  0.54696948  0.64162938     1.18400
C729        C  0.11199283  0.49912945  0.58699001     0.97900
C730        C  0.11887772  0.49846231  0.69274560     0.98500
N731        N  0.42677784  0.51331468  0.60985527    -0.06600
N732        N  0.40991284  0.52508393  0.59068452    -0.62900
N733        N  0.42097420  0.98077349  0.66490483    -0.05400
N734        N  0.39499046  0.96945858  0.67895291    -0.63600
N735        N  0.42094224  0.51463674  0.66409803    -0.06100
N736        N  0.39561853  0.52782666  0.67786835    -0.63200
N737        N  0.42718310  0.97927839  0.61060653    -0.05000
N738        N  0.41019332  0.96650699  0.59182220    -0.63900
Mn739      Mn  0.45253427  0.54473458  0.63808146     1.10700
C740        C  0.39975173  0.49460835  0.57939587     0.99100
C741        C  0.37947315  0.49839569  0.68688771     0.99200
N742        N  0.01859893  0.91955285  0.66811039    -0.06100
N743        N  0.03024262  0.89488434  0.68323660    -0.61500
N744        N  0.48574273  0.92002375  0.61330135    -0.05500
N745        N  0.47447671  0.90142788  0.59475364    -0.58200
N746        N  0.02148974  0.92088030  0.61365022    -0.06800
N747        N  0.03481813  0.90271501  0.59562536    -0.61100
N748        N  0.48255709  0.91956192  0.66781716    -0.05700
N749        N  0.46957415  0.89517620  0.68252014    -0.58300
Mn750      Mn  0.05077367  0.94959977  0.64176617     1.20200
Mn751      Mn  0.45334472  0.94913225  0.63944026     1.10100
Cl752      Cl  0.50115859  0.49675311  0.64058935    -0.86200
C753        C  0.49925063  0.88066472  0.69283286     0.96100
C754        C  0.00541216  0.89141658  0.58347845     0.95900
N755        N  0.47979835  0.91938695  0.33292828    -0.06400
N756        N  0.46693443  0.89642439  0.31716510    -0.58500
N757        N  0.01576621  0.92121872  0.38730719    -0.06100
N758        N  0.02749531  0.90204200  0.40549999    -0.60600
N759        N  0.47859562  0.92171904  0.38732291    -0.05700
N760        N  0.46496470  0.90364153  0.40526078    -0.58500
N761        N  0.01612921  0.91935167  0.33263442    -0.05300
N762        N  0.02792028  0.89592472  0.31684256    -0.61000
C763        C  0.49671389  0.88171102  0.30741529     0.95800
C764        C  0.99702401  0.89129435  0.41640814     0.95600
N765        N  0.07567721  0.51346268  0.38847496    -0.06600
N766        N  0.09462873  0.52561269  0.40665236    -0.59100
N767        N  0.07916651  0.97759015  0.33327585    -0.04700
N768        N  0.10335334  0.96427725  0.31857406    -0.60300
N769        N  0.07873767  0.51262334  0.33397764    -0.06600
N770        N  0.10324897  0.52421905  0.31897847    -0.59300
N771        N  0.07655019  0.97889614  0.38774794    -0.04300
N772        N  0.09478939  0.96634069  0.40616073    -0.60400
Mn773      Mn  0.04760107  0.94845758  0.36006286     1.18400
C774        C  0.10645003  0.99628541  0.41749808     0.97900
C775        C  0.11718691  0.49368141  0.30977770     0.98500
N776        N  0.42176920  0.98347329  0.38621130    -0.06600
N777        N  0.40402126  0.97245280  0.40506172    -0.62900
N778        N  0.42095687  0.51713416  0.33147286    -0.05400
N779        N  0.39634836  0.52978506  0.31660590    -0.63600
N780        N  0.42075932  0.98166296  0.33143462    -0.06100
N781        N  0.39612349  0.96963551  0.31642129    -0.63200
N782        N  0.42253233  0.51813199  0.38587871    -0.05000
N783        N  0.40495826  0.53156534  0.40412092    -0.63900
Mn784      Mn  0.44947051  0.95081766  0.35930483     1.10700
C785        C  0.39402159  0.00335508  0.41591482     0.99100
C786        C  0.38101162  0.49991752  0.30732934     0.99200
N787        N  0.02009200  0.57459063  0.33247309    -0.06100
N788        N  0.03428824  0.59789847  0.31761124    -0.61500
N789        N  0.48253133  0.57585775  0.38575275    -0.05500
N790        N  0.46990025  0.59502029  0.40356922    -0.58200
N791        N  0.01771838  0.57460339  0.38691305    -0.06800
N792        N  0.02991327  0.59292532  0.40530864    -0.61100
N793        N  0.48421484  0.57584463  0.33122222    -0.05700
N794        N  0.47348932  0.60020508  0.31559289    -0.58300
Mn795      Mn  0.04872251  0.54450223  0.36035198     1.20200
Mn796      Mn  0.45183144  0.54751402  0.35828114     1.10100
Cl797      Cl  0.49956016  0.99727800  0.35923319    -0.86200
C798        C  0.50459628  0.61279507  0.30640692     0.96100
C799        C  0.99977878  0.60557980  0.41585707     0.95900
C800        C  0.00435443  0.78091237  0.51249411     0.02000
C801        C  0.00366361  0.78110767  0.48753511     0.02000
C802        C  0.00350048  0.74838137  0.47524529    -0.18500
C803        C  0.00327840  0.71549285  0.48733392     0.02000
C804        C  0.00297454  0.71530933  0.51228173     0.02000
C805        C  0.00400890  0.74803088  0.52459828    -0.18500
H806        H  0.00403101  0.74790960  0.54384650     0.04000
H807        H  0.00310306  0.74851056  0.45599533     0.04000
C808        C  0.28507175  0.49590148  0.51168175     0.02000
C809        C  0.28350513  0.49984112  0.48686807     0.02000
C810        C  0.24989152  0.49913257  0.47551982    -0.18500
C811        C  0.21787751  0.49613806  0.48837790     0.02000
C812        C  0.21935183  0.49531967  0.51339292     0.02000
C813        C  0.25305803  0.49462732  0.52466715    -0.18500
H814        H  0.25441934  0.49320051  0.54388125     0.04000
H815        H  0.24860596  0.50055564  0.45630420     0.04000
C816        C  0.00326643  0.74726520  0.25186705    -0.02800
C817        C  0.49609267  0.85047609  0.29109228    -0.00400
C818        C  0.96947051  0.82561613  0.29294904    -0.12300
C819        C  0.97042355  0.79288599  0.28054261     0.01800
C820        C  0.49952106  0.78403287  0.26553516    -0.00500
C821        C  0.52327657  0.81301915  0.26078751    -0.12200
C822        C  0.52265293  0.84501597  0.27388124     0.01700
H823        H  0.94794768  0.83049444  0.30546642     0.14700
H824        H  0.54268157  0.81152453  0.24667877     0.14700
C825        C  0.54897176  0.87238075  0.26871438     0.36300
C826        C  0.94143374  0.76837452  0.28548881     0.36200
N827        N  0.57002125  0.89432247  0.26454025    -0.44000
N828        N  0.91743844  0.75024355  0.29056118    -0.44000
C829        C  0.50738428  0.71298364  0.26786071    -0.00400
C830        C  0.51035178  0.67942542  0.25583347    -0.12300
C831        C  0.50954452  0.64651350  0.26792390     0.01800
C832        C  0.50701543  0.64627582  0.29268300    -0.00500
C833        C  0.00894387  0.67946669  0.30549227    -0.12200
C834        C  0.00969337  0.71244577  0.29345023     0.01700
H835        H  0.51040758  0.67879716  0.23661991     0.14700
H836        H  0.00940558  0.67909716  0.32475415     0.14700
C837        C  0.01518959  0.74349333  0.30834124     0.36300
C838        C  0.50914349  0.61341791  0.25452651     0.36200
N839        N  0.02013844  0.76753932  0.32098886    -0.44000
N840        N  0.50858814  0.58685198  0.24383515    -0.44000
C841        C  0.00018560  0.62991129  0.43677720    -0.00400
C842        C  0.03313428  0.64551428  0.44343778    -0.12300
C843        C  0.03498293  0.67126695  0.46141524     0.01800
C844        C  0.00341898  0.68233243  0.47295069    -0.00500
C845        C  0.46950191  0.66459245  0.46722160    -0.12200
C846        C  0.46826945  0.63828499  0.44939148     0.01700
H847        H  0.05746372  0.63876411  0.43393089     0.14700
H848        H  0.44501174  0.67245513  0.47623973     0.14700
C849        C  0.43432777  0.62067140  0.44487990     0.36300
C850        C  0.06940571  0.68703044  0.46719632     0.36200
N851        N  0.40709107  0.60650406  0.44146528    -0.44000
N852        N  0.09698432  0.69957006  0.47195091    -0.44000
C853        C  0.99662641  0.86686860  0.43724384    -0.00400
C854        C  0.02899687  0.86101569  0.44978729    -0.12300
C855        C  0.03142215  0.83486517  0.46760380     0.01800
C856        C  0.00090641  0.81441135  0.47337326    -0.00500
C857        C  0.46491472  0.81944246  0.46109294    -0.12200
C858        C  0.46271154  0.84529857  0.44312187     0.01700
H859        H  0.05294558  0.87590324  0.44505120     0.14700
H860        H  0.44229276  0.80165178  0.46406771     0.14700
C861        C  0.42997189  0.84683038  0.42919800     0.36300
C862        C  0.06601211  0.82795849  0.47851249     0.36200
N863        N  0.40367892  0.84790135  0.41808683    -0.44000
N864        N  0.09391305  0.82268209  0.48709887    -0.44000
C865        C  0.13101161  0.99564920  0.43841534    -0.00400
C866        C  0.15168466  0.96452639  0.44240979    -0.12300
C867        C  0.17875176  0.96387605  0.45972735     0.01800
C868        C  0.18420036  0.49331108  0.47446540    -0.00500
C869        C  0.16266485  0.52393919  0.47144304    -0.12200
C870        C  0.13616184  0.52514804  0.45361909     0.01700
H871        H  0.14817770  0.94121769  0.43107481     0.14700
H872        H  0.16812978  0.54771475  0.48201162     0.14700
C873        C  0.11638490  0.55826688  0.45052093     0.36300
C874        C  0.20159576  0.93244630  0.46142536     0.36200
N875        N  0.10086922  0.58504751  0.44808604    -0.44000
N876        N  0.22006491  0.90739714  0.46279196    -0.44000
C877        C  0.37057607  0.00512752  0.43702807    -0.00400
C878        C  0.34652166  0.53303252  0.43925836    -0.12300
C879        C  0.31987351  0.53337304  0.45662088     0.01800
C880        C  0.31596946  0.50360902  0.47191762    -0.00500
C881        C  0.34121943  0.97682520  0.47069150    -0.12200
C882        C  0.36839601  0.97666836  0.45359518     0.01700
H883        H  0.34797139  0.55522022  0.42681256     0.14700
H884        H  0.33830076  0.95392220  0.48243070     0.14700
C885        C  0.39402966  0.94743407  0.45382056     0.36300
C886        C  0.29645071  0.56434815  0.45820686     0.36200
N887        N  0.41484970  0.92423896  0.45436472    -0.44000
N888        N  0.27775774  0.58920798  0.45956121    -0.44000
C889        C  0.18721550  0.49726780  0.52880799    -0.00400
C890        C  0.18229936  0.52881586  0.54201902    -0.12300
C891        C  0.15816896  0.53010839  0.56094386     0.01800
C892        C  0.13710621  0.49959136  0.56649801    -0.00500
C893        C  0.14156958  0.96813558  0.55208799    -0.12200
C894        C  0.16657134  0.96677379  0.53352930     0.01700
H895        H  0.19919869  0.55192433  0.53845282     0.14700
H896        H  0.12552971  0.94457138  0.55591164     0.14700
C897        C  0.17163223  0.93317814  0.52119228     0.36300
C898        C  0.15822358  0.56209860  0.57547392     0.36200
N899        N  0.17544424  0.90586020  0.51169250    -0.44000
N900        N  0.15853756  0.58774174  0.58711538    -0.44000
C901        C  0.37576650  0.49354381  0.55837992    -0.00400
C902        C  0.35723830  0.96377004  0.55379379    -0.12300
C903        C  0.32917132  0.96328086  0.53725359     0.01800
C904        C  0.31928111  0.49318776  0.52498091    -0.00500
C905        C  0.34128828  0.52352034  0.52722664    -0.12200
C906        C  0.36972680  0.52382499  0.54365564     0.01700
H907        H  0.36296050  0.93957474  0.56390152     0.14700
H908        H  0.33526079  0.54744647  0.51690204     0.14700
C909        C  0.39205496  0.55545325  0.54500862     0.36300
C910        C  0.30931774  0.93032913  0.53383158     0.36200
N911        N  0.41011119  0.58071855  0.54588274    -0.44000
N912        N  0.29332154  0.90399411  0.53106235    -0.44000
C913        C  0.00210956  0.62795632  0.56152736    -0.00400
C914        C  0.47120429  0.64539849  0.55622472    -0.12300
C915        C  0.47001657  0.67179330  0.53862785     0.01800
C916        C  0.00086662  0.68192450  0.52635488    -0.00500
C917        C  0.03208922  0.66151055  0.53021784    -0.12200
C918        C  0.03287968  0.63441889  0.54752467     0.01700
H919        H  0.44701876  0.64005043  0.56625237     0.14700
H920        H  0.05626178  0.66773694  0.52037695     0.14700
C921        C  0.06546416  0.61370664  0.55029177     0.36300
C922        C  0.43653775  0.69057535  0.53423146     0.36200
N923        N  0.09162346  0.59699095  0.55212251    -0.44000
N924        N  0.40975751  0.70566720  0.53066781    -0.44000
C925        C  0.00457496  0.81412608  0.52679070    -0.00400
C926        C  0.03744909  0.82638242  0.53585597    -0.12300
C927        C  0.03867217  0.85337259  0.55310446     0.01800
C928        C  0.00620991  0.86750496  0.56235751    -0.00500
C929        C  0.47382551  0.85743227  0.55173641    -0.12200
C930        C  0.47267544  0.83123503  0.53390031     0.01700
H931        H  0.06223038  0.81371788  0.53014589     0.14700
H932        H  0.44899759  0.87050313  0.55697958     0.14700
C933        C  0.43846216  0.82207907  0.52325426     0.36300
C934        C  0.07366856  0.86494568  0.56128969     0.36200
N935        N  0.41111456  0.81461542  0.51466595    -0.44000
N936        N  0.10179593  0.87420932  0.56771613    -0.44000
C937        C  0.10083133  0.74481199  0.20678381    -0.00400
C938        C  0.10397403  0.75102151  0.23106452    -0.12300
C939        C  0.07374285  0.75018744  0.24582406     0.01800
C940        C  0.03825447  0.74580775  0.23605797    -0.00500
C941        C  0.03632193  0.73685935  0.21158366    -0.12200
C942        C  0.06695823  0.73621106  0.19718127     0.01700
H943        H  0.13040617  0.75618705  0.23861508     0.14700
H944        H  0.01108745  0.72925045  0.20340581     0.14700
C945        C  0.06305307  0.72645826  0.17249232     0.36300
C946        C  0.08082868  0.75554678  0.27076259     0.36200
N947        N  0.06015428  0.71841978  0.15274050    -0.44000
N948        N  0.08850254  0.76041281  0.29042520    -0.44000
C949        C  0.46754689  0.74598389  0.23630083    -0.00400
C950        C  0.46275448  0.77441363  0.21974428    -0.12300
C951        C  0.43212486  0.77740606  0.20520903     0.01800
C952        C  0.40448915  0.75172984  0.20685454    -0.00500
C953        C  0.40824470  0.72376664  0.22315267    -0.12200
C954        C  0.43829276  0.72085400  0.23815599     0.01700
H955        H  0.48366732  0.79448146  0.21793490     0.14700
H956        H  0.38655207  0.70442112  0.22476473     0.14700
C957        C  0.43466074  0.69345010  0.25610843     0.36300
C958        C  0.43075128  0.80624317  0.18806539     0.36200
N959        N  0.42974232  0.67148281  0.27027289    -0.44000
N960        N  0.42997406  0.82935225  0.17430863    -0.44000
C961        C  0.25704219  0.62399550  0.06185426    -0.00400
C962        C  0.28794342  0.60270281  0.05895509    -0.12300
C963        C  0.28909934  0.57582998  0.04173221     0.01800
C964        C  0.25914824  0.57027282  0.02667695    -0.00500
C965        C  0.22954200  0.59363127  0.02804099    -0.12200
C966        C  0.22826499  0.62047445  0.04547589     0.01700
H967        H  0.31053255  0.60549266  0.07109581     0.14700
H968        H  0.20653074  0.58953142  0.01642398     0.14700
C969        C  0.19705079  0.64362082  0.04626156     0.36300
C970        C  0.32044816  0.55276827  0.04083916     0.36200
N971        N  0.17206523  0.66225024  0.04674027    -0.44000
N972        N  0.34542330  0.53412348  0.04022039    -0.44000
C973        C  0.25281266  0.93808573  0.02904982    -0.00400
C974        C  0.28401574  0.93198608  0.04254203    -0.12300
C975        C  0.28412946  0.90774143  0.06148041     0.01800
C976        C  0.25294016  0.88725344  0.06641769    -0.00500
C977        C  0.22201676  0.89266542  0.05236192    -0.12200
C978        C  0.22144581  0.91842889  0.03419225     0.01700
H979        H  0.30765426  0.94832006  0.03934075     0.14700
H980        H  0.19773513  0.87781906  0.05619985     0.14700
C981        C  0.18754752  0.92659820  0.02273328     0.36300
C982        C  0.31544942  0.90753467  0.07680299     0.36200
N983        N  0.16014704  0.93334900  0.01389528    -0.44000
N984        N  0.34051064  0.90784321  0.08911394    -0.44000
C985        C  0.24920068  0.56822142  0.97331090    -0.00400
C986        C  0.21627565  0.57541217  0.96201887    -0.12300
C987        C  0.21345193  0.60181621  0.94445557     0.01800
C988        C  0.24418586  0.62195101  0.93806572    -0.00500
C989        C  0.27681279  0.61566688  0.95023879    -0.12200
C990        C  0.27959420  0.58887528  0.96760842     0.01700
H991        H  0.19301827  0.55908495  0.96622441     0.14700
H992        H  0.30063322  0.63083708  0.94561283     0.14700
C993        C  0.31437024  0.58148999  0.97812342     0.36300
C994        C  0.17923165  0.60566964  0.93241225     0.36200
N995        N  0.34237385  0.57561571  0.98638181    -0.44000
N996        N  0.15175592  0.60858409  0.92279251    -0.44000
C997        C  0.24794121  0.93600462  0.97510646    -0.00400
C998        C  0.21505561  0.92571190  0.96503676    -0.12300
C999        C  0.21342011  0.89945080  0.94732107     0.01800
C1000       C  0.24564458  0.88386834  0.93859434    -0.00500
C1001       C  0.27837857  0.89268324  0.94983198    -0.12200
C1002       C  0.27972773  0.91845996  0.96797914     0.01700
H1003       H  0.19065571  0.93962265  0.97021320     0.14700
H1004       H  0.30322835  0.88053912  0.94381022     0.14700
C1005       C  0.31426635  0.92821943  0.97787946     0.36300
C1006       C  0.17825588  0.89053031  0.93800667     0.36200
N1007       N  0.34201081  0.93595354  0.98577134    -0.44000
N1008       N  0.14990319  0.88352469  0.93077510    -0.44000
C1009       C  0.49375125  0.70921051  0.73659636    -0.00400
C1010       C  0.46530459  0.70296421  0.72032079    -0.12300
C1011       C  0.46389883  0.67190465  0.70616056     0.01800
C1012       C  0.49114676  0.64544497  0.70819267    -0.00500
C1013       C  0.01612773  0.64970699  0.72649466    -0.12200
C1014       C  0.01609863  0.67959719  0.74171986     0.01700
H1015       H  0.44521718  0.72368126  0.71744713     0.14700
H1016       H  0.03523601  0.62802387  0.72953512     0.14700
C1017       C  0.03677092  0.67539810  0.76333549     0.36300
C1018       C  0.43545946  0.66936126  0.68867031     0.36200
N1019       N  0.05322171  0.67115808  0.78063376    -0.44000
N1020       N  0.41256357  0.66744561  0.67470880    -0.44000
C1021       C  0.49770732  0.78068902  0.73266821    -0.00400
C1022       C  0.99499801  0.81539326  0.74379459    -0.12300
C1023       C  0.99485879  0.84772414  0.73098244     0.01800
C1024       C  0.49884307  0.84716892  0.70694519    -0.00500
C1025       C  0.50250679  0.81434395  0.69516600    -0.12200
C1026       C  0.50234757  0.78139979  0.70740600     0.01700
H1027       H  0.99152434  0.81682227  0.76284413     0.14700
H1028       H  0.50579437  0.81453716  0.67603974     0.14700
C1029       C  0.50896272  0.75035482  0.69275507     0.36300
C1030       C  0.98943939  0.88121554  0.74341903     0.36200
N1031       N  0.51473887  0.72651358  0.68011047    -0.44000
N1032       N  0.98480729  0.90813788  0.75325074    -0.44000
C1033       C  0.02967647  0.75197263  0.76539829    -0.00400
C1034       C  0.02751840  0.76246596  0.78957620    -0.12300
C1035       C  0.05815349  0.76438306  0.80428389     0.01800
C1036       C  0.09242577  0.75702361  0.79501988    -0.00500
C1037       C  0.09565018  0.75001942  0.77087902    -0.12200
C1038       C  0.06529627  0.74834248  0.75597858     0.01700
H1039       H  0.00204689  0.76980449  0.79734459     0.14700
H1040       H  0.12224276  0.74537247  0.76361714     0.14700
C1041       C  0.07266872  0.74011486  0.73150995     0.36300
C1042       C  0.05367941  0.77349881  0.82899161     0.36200
N1043       N  0.08112014  0.73289405  0.71237688    -0.44000
N1044       N  0.05004743  0.78077079  0.84879351    -0.44000
C1045       C  0.45924526  0.74767077  0.76419812    -0.00400
C1046       C  0.45586365  0.72302416  0.78322129    -0.12300
C1047       C  0.42566139  0.72264300  0.79811001     0.01800
C1048       C  0.39703563  0.74706177  0.79427901    -0.00500
C1049       C  0.39855473  0.76975260  0.77456698    -0.12200
C1050       C  0.42786094  0.76902414  0.75892661     0.01700
H1051       H  0.47767652  0.70444193  0.78696081     0.14700
H1052       H  0.37565302  0.78702113  0.77067030     0.14700
C1053       C  0.42192287  0.78751709  0.73669529     0.36300
C1054       C  0.42554038  0.69774727  0.81776671     0.36200
N1055       N  0.41626959  0.80224511  0.71895305    -0.44000
N1056       N  0.42550888  0.67773014  0.83349309    -0.44000
C1057       C  0.34680199  0.50045097  0.70182030    -0.00400
C1058       C  0.34129230  0.53155802  0.71528132    -0.12300
C1059       C  0.31118132  0.53574775  0.72984615     0.01800
C1060       C  0.28574978  0.50711010  0.73216864    -0.00500
C1061       C  0.29054757  0.97890613  0.71725238    -0.12200
C1062       C  0.32054455  0.97536392  0.70246149     0.01700
H1063       H  0.36077762  0.55319169  0.71430029     0.14700
H1064       H  0.27107089  0.95726525  0.71737512     0.14700
C1065       C  0.32310458  0.94373884  0.68770456     0.36300
C1066       C  0.30716539  0.57112185  0.74000982     0.36200
N1067       N  0.32516262  0.91832049  0.67593654    -0.44000
N1068       N  0.30485864  0.60007358  0.74742926    -0.44000
C1069       C  0.21918660  0.50213549  0.73312353    -0.00400
C1070       C  0.19935868  0.97054758  0.73278905    -0.12300
C1071       C  0.16683909  0.96858444  0.72007626     0.01800
C1072       C  0.15316724  0.49847524  0.70656256    -0.00500
C1073       C  0.17530308  0.52878578  0.70530955    -0.12200
C1074       C  0.20821116  0.53050883  0.71754006     0.01700
H1075       H  0.20833057  0.94616347  0.74144561     0.14700
H1076       H  0.16709113  0.55139749  0.69434444     0.14700
C1077       C  0.22888090  0.56278166  0.71395691     0.36300
C1078       C  0.14653963  0.93556727  0.72133231     0.36200
N1079       N  0.24383921  0.58937850  0.71013380    -0.44000
N1080       N  0.13037094  0.90907335  0.72247958    -0.44000
C1081       C  0.25013765  0.53795405  0.76742279    -0.00400
C1082       C  0.21788645  0.55849842  0.76888928    -0.12300
C1083       C  0.21495351  0.58919878  0.78322450     0.01800
C1084       C  0.24416534  0.59993039  0.79757942    -0.00500
C1085       C  0.27453243  0.57753088  0.79858167    -0.12200
C1086       C  0.27737866  0.54652033  0.78451287     0.01700
H1087       H  0.19399740  0.55075688  0.75921488     0.14700
H1088       H  0.29651095  0.58428496  0.81052541     0.14700
C1089       C  0.30985991  0.52567565  0.78765370     0.36300
C1090       C  0.18153060  0.60912787  0.78255274     0.36200
N1091       N  0.33659951  0.51051558  0.79119887    -0.44000
N1092       N  0.15458170  0.62481171  0.78194897    -0.44000
C1093       C  0.25649069  0.97179426  0.76776668    -0.00400
C1094       C  0.22669521  0.96595812  0.78289044    -0.12300
C1095       C  0.22303102  0.93467881  0.79646852     0.01800
C1096       C  0.24993040  0.90791828  0.79580646    -0.00500
C1097       C  0.28108790  0.91460138  0.78279489    -0.12200
C1098       C  0.28535713  0.94614969  0.76952170     0.01700
H1099       H  0.20501415  0.98552924  0.78326784     0.14700
H1100       H  0.30288807  0.89509887  0.78335905     0.14700
C1101       C  0.32111716  0.95125810  0.76029456     0.36300
C1102       C  0.19189272  0.93164981  0.81150827     0.36200
N1103       N  0.35032473  0.95438706  0.75359198    -0.44000
N1104       N  0.16701474  0.92951834  0.82365979    -0.44000
C1105       C  0.06442458  0.74959614  0.02740932    -0.00400
C1106       C  0.08120643  0.78191988  0.03352669    -0.12300
C1107       C  0.10731874  0.78299246  0.05152856     0.01800
C1108       C  0.11730801  0.75095717  0.06361937    -0.00500
C1109       C  0.10163154  0.71831096  0.05644372    -0.12200
C1110       C  0.07533031  0.71744768  0.03859363     0.01700
H1111       H  0.07240036  0.80671521  0.02510795     0.14700
H1112       H  0.10885725  0.69347451  0.06538295     0.14700
C1113       C  0.05905898  0.68344212  0.03244203     0.36300
C1114       C  0.12200421  0.81767174  0.05766325     0.36200
N1115       N  0.04604576  0.65623684  0.02739891    -0.44000
N1116       N  0.13335513  0.84565456  0.06258845    -0.44000
C1117       C  0.37971018  0.75056442  0.06334136    -0.00400
C1118       C  0.39684630  0.71792744  0.05768922    -0.12300
C1119       C  0.42300977  0.71631222  0.04006308     0.01800
C1120       C  0.43199796  0.74759801  0.02738327    -0.00500
C1121       C  0.41294719  0.77950429  0.03155420    -0.12200
C1122       C  0.38693013  0.78127122  0.04935265     0.01700
H1123       H  0.39117807  0.69383646  0.06782619     0.14700
H1124       H  0.41984570  0.80361783  0.02176248     0.14700
C1125       C  0.36871384  0.81507264  0.05291734     0.36300
C1126       C  0.44137868  0.68261181  0.03605728     0.36200
N1127       N  0.35418627  0.84232302  0.05546801    -0.44000
N1128       N  0.45596163  0.65547662  0.03300622    -0.44000
C1129       C  0.11762773  0.76192495  0.93902592    -0.00400
C1130       C  0.09471549  0.79177708  0.94136892    -0.12300
C1131       C  0.06813423  0.79254832  0.95877417     0.01800
C1132       C  0.06391912  0.76287655  0.97416183    -0.00500
C1133       C  0.08887876  0.73452089  0.97322448    -0.12200
C1134       C  0.11592621  0.73406814  0.95602941     0.01700
H1135       H  0.09638172  0.81389343  0.92887775     0.14700
H1136       H  0.08623845  0.71185388  0.98517482     0.14700
C1137       C  0.14187220  0.70512335  0.95653605     0.36300
C1138       C  0.04460464  0.82351974  0.95991620     0.36200
N1139       N  0.16297750  0.68219868  0.95728189    -0.44000
N1140       N  0.02564341  0.84823667  0.96077108    -0.44000
C1141       C  0.43126105  0.75621471  0.97432420    -0.00400
C1142       C  0.41773056  0.78904675  0.96598090    -0.12300
C1143       C  0.39132648  0.79008883  0.94816650     0.01800
C1144       C  0.37789259  0.75749038  0.93846992    -0.00500
C1145       C  0.39019634  0.72469222  0.94798717    -0.12200
C1146       C  0.41697694  0.72383777  0.96550871     0.01700
H1147       H  0.42923763  0.81394207  0.97256433     0.14700
H1148       H  0.38028382  0.69946379  0.94089329     0.14700
C1149       C  0.43161682  0.68945301  0.97262306     0.36300
C1150       C  0.38028833  0.82505763  0.93958189     0.36200
N1151       N  0.44356538  0.66184483  0.97802946    -0.44000
N1152       N  0.37190912  0.85324860  0.93274853    -0.44000
C1153       C  0.34829216  0.50032615  0.29206046    -0.00400
C1154       C  0.32264477  0.52756991  0.29517854    -0.12300
C1155       C  0.29016423  0.52790795  0.28231183     0.01800
C1156       C  0.28224635  0.50035841  0.26538048    -0.00500
C1157       C  0.31071440  0.97373051  0.26098802    -0.12200
C1158       C  0.34273779  0.97329746  0.27426449     0.01700
H1159       H  0.32759217  0.54841330  0.30825624     0.14700
H1160       H  0.30842846  0.95362503  0.24727322     0.14700
C1161       C  0.36907380  0.94566307  0.26929393     0.36300
C1162       C  0.26527038  0.55667660  0.28761237     0.36200
N1163       N  0.39015270  0.92356838  0.26521056    -0.44000
N1164       N  0.24560792  0.57975234  0.29234300    -0.44000
C1165       C  0.14952625  0.49303786  0.29481004    -0.00400
C1166       C  0.14593778  0.49830227  0.27045932    -0.12300
C1167       C  0.17619612  0.49995954  0.25577796     0.01800
C1168       C  0.21187705  0.49837149  0.26562223    -0.00500
C1169       C  0.21585706  0.99055589  0.28931094    -0.12200
C1170       C  0.18541537  0.98848662  0.30379000     0.01700
H1171       H  0.11917434  0.50116158  0.26283501     0.14700
H1172       H  0.24162485  0.98577839  0.29772594     0.14700
C1173       C  0.19024602  0.98184575  0.32886117     0.36300
C1174       C  0.16871445  0.50443162  0.23080727     0.36200
N1175       N  0.19402929  0.97643034  0.34894247    -0.44000
N1176       N  0.16056331  0.50840291  0.21113138    -0.44000
C1177       C  0.24904832  0.53752436  0.23584798    -0.00400
C1178       C  0.22319843  0.56526717  0.23902015    -0.12300
C1179       C  0.22408672  0.59738435  0.22606459     0.01800
C1180       C  0.25226854  0.60383325  0.21012971    -0.00500
C1181       C  0.28014218  0.57856799  0.20854157    -0.12200
C1182       C  0.27899583  0.54594857  0.22101726     0.01700
H1183       H  0.20207854  0.56279427  0.25193408     0.14700
H1184       H  0.30224768  0.58348626  0.19650834     0.14700
C1185       C  0.30789598  0.52084757  0.21644750     0.36300
C1186       C  0.19615297  0.62377566  0.23007401     0.36200
N1187       N  0.33114422  0.50117651  0.21210930    -0.44000
N1188       N  0.17375339  0.64485630  0.23337223    -0.44000
C1189       C  0.24568706  0.96661825  0.23247859    -0.00400
C1190       C  0.24450461  0.93285803  0.24435255    -0.12300
C1191       C  0.24520358  0.90013481  0.23215277     0.01000
C1192       C  0.24669253  0.90008173  0.20738187    -0.00500
C1193       C  0.24519519  0.93264336  0.19510675    -0.12200
C1194       C  0.24356891  0.96564598  0.20707144     0.01700
H1195       H  0.24447283  0.93204561  0.26357160     0.14700
H1196       H  0.24441090  0.93215773  0.17584686     0.14700
C1197       C  0.23683386  0.99642374  0.19207068     0.36300
C1198       C  0.24444268  0.86691838  0.24541102     0.36200
N1199       N  0.23085766  0.02024207  0.17938482    -0.44000
N1200       N  0.24365261  0.84026457  0.25599924    -0.44000
C1201       C  0.74725745  0.50126974  0.24900484    -0.02800
C1202       C  0.96534431  0.25060537  0.01340444     0.02000
C1203       C  0.96500588  0.25656270  0.98878320     0.02000
C1204       C  0.49709971  0.26034074  0.97662866    -0.18500
C1205       C  0.53035795  0.25853753  0.98851284     0.02000
C1206       C  0.53085312  0.25080814  0.01303784     0.02000
C1207       C  0.49831574  0.24678600  0.02512998    -0.18500
H1208       H  0.49875991  0.24228956  0.04415274     0.04000
H1209       H  0.49640134  0.26450090  0.95758119     0.04000
C1210       C  0.75476653  0.00513932  0.75030981    -0.02800
C1211       C  0.49520805  0.24682936  0.74975750    -0.02800
C1212       C  0.74874668  0.47009805  0.98930627     0.02000
C1213       C  0.75104272  0.47127808  0.01425588     0.02000
C1214       C  0.75683597  0.00439566  0.02542504    -0.18500
C1215       C  0.75636701  0.03666173  0.01267231     0.02000
C1216       C  0.75147766  0.03558589  0.98788022     0.02000
C1217       C  0.74843471  0.00222151  0.97646117    -0.18500
H1218       H  0.74520164  0.00140226  0.95732258     0.04000
H1219       H  0.75926308  0.00521580  0.04461699     0.04000
N1220       N  0.72964513  0.33277921  0.88691366    -0.06400
N1221       N  0.71703825  0.35062322  0.90526062    -0.58500
N1222       N  0.76471061  0.33269463  0.83266855    -0.06100
N1223       N  0.77746497  0.35809835  0.81875794    -0.60600
N1224       N  0.72924184  0.33373697  0.83275307    -0.05700
N1225       N  0.71740809  0.36007207  0.81898433    -0.58500
N1226       N  0.76499115  0.33244018  0.88726033    -0.05300
N1227       N  0.77708712  0.35017581  0.90603308    -0.61000
C1228       C  0.74675552  0.36138115  0.91716372     0.95800
C1229       C  0.74776090  0.37491341  0.81024016     0.95600
N1230       N  0.82511652  0.23477490  0.83414463    -0.06600
N1231       N  0.84984701  0.22091812  0.82006147    -0.59100
N1232       N  0.82393316  0.27290627  0.88758434    -0.04700
N1233       N  0.84297349  0.28616681  0.90532081    -0.60300
N1234       N  0.82351058  0.23763590  0.88851437    -0.06600
N1235       N  0.84239858  0.22615670  0.90696530    -0.59300
N1236       N  0.82556666  0.27021024  0.83306586    -0.04300
N1237       N  0.85057703  0.28093277  0.81799709    -0.60400
Mn1238     Mn  0.79547227  0.30275660  0.85981569     1.18400
C1239       C  0.86544853  0.24987461  0.80993187     0.97900
C1240       C  0.85431489  0.25679892  0.91738545     0.98500
N1241       N  0.66666798  0.27379612  0.83349613    -0.06600
N1242       N  0.64104513  0.28630516  0.81930933    -0.62900
N1243       N  0.66938103  0.24014261  0.88855339    -0.05400
N1244       N  0.65167021  0.22902071  0.90741615    -0.63600
N1245       N  0.66971507  0.27544387  0.88775656    -0.06100
N1246       N  0.65215786  0.28910977  0.90593001    -0.63200
N1247       N  0.66618350  0.23832206  0.83388854    -0.05000
N1248       N  0.64031409  0.22614550  0.81981750    -0.63900
Mn1249     Mn  0.69827773  0.30452459  0.85987026     1.10700
C1250       C  0.62517840  0.25633203  0.81067828     0.99100
C1251       C  0.64124997  0.25988907  0.91818541     0.99200
N1252       N  0.76307532  0.17929662  0.88932986    -0.06100
N1253       N  0.77516513  0.15965558  0.90720450    -0.61500
N1254       N  0.72724394  0.17573857  0.83487007    -0.05500
N1255       N  0.71475732  0.14998277  0.82089191    -0.58200
N1256       N  0.76273822  0.17507497  0.83522349    -0.06800
N1257       N  0.77482609  0.14892145  0.82154792    -0.61100
N1258       N  0.72772888  0.17981229  0.88907368    -0.05700
N1259       N  0.71505404  0.16060233  0.90677840    -0.58300
Mn1260     Mn  0.79419831  0.20609160  0.86163950     1.20200
Mn1261     Mn  0.69693257  0.20784700  0.86130855     1.10100
Cl1262     Cl  0.74622460  0.25526042  0.86015851    -0.86200
C1263       C  0.74487357  0.14815193  0.91798452     0.96100
C1264       C  0.74472566  0.13362061  0.81248343     0.95900
N1265       N  0.67201221  0.23063981  0.16744953    -0.06400
N1266       N  0.64805087  0.21689386  0.18203231    -0.58500
N1267       N  0.67278008  0.26807857  0.11376369    -0.06100
N1268       N  0.65294821  0.28078495  0.09616355    -0.60600
N1269       N  0.67348194  0.23274969  0.11322629    -0.05700
N1270       N  0.65406652  0.22071780  0.09522185    -0.58500
N1271       N  0.67117871  0.26605867  0.16819071    -0.05300
N1272       N  0.64659727  0.27702145  0.18345640    -0.61000
C1273       C  0.63281013  0.24605709  0.19214816     0.95800
C1274       C  0.64153780  0.25101785  0.08460449     0.95600
N1275       N  0.76662289  0.32904788  0.11513722    -0.06600
N1276       N  0.77944780  0.34977108  0.09829645    -0.59100
N1277       N  0.73098712  0.32798157  0.16907932    -0.04700
N1278       N  0.71788402  0.35194191  0.18399271    -0.60300
N1279       N  0.76646169  0.32889503  0.16923227    -0.06600
N1280       N  0.77803935  0.35363201  0.18424987    -0.59300
N1281       N  0.73126843  0.32908146  0.11466714    -0.04300
N1282       N  0.71934297  0.35008825  0.09732343    -0.60400
Mn1283     Mn  0.70078503  0.29851313  0.14158598     1.18400
C1284       C  0.74985950  0.36289659  0.08729210     0.97900
C1285       C  0.74747049  0.36716498  0.19365314     0.98500
N1286       N  0.73474916  0.17479872  0.11283445    -0.06600
N1287       N  0.72350359  0.15747698  0.09371440    -0.62900
N1288       N  0.76959631  0.17289585  0.16819292    -0.05400
N1289       N  0.78225662  0.14981822  0.18403064    -0.63600
N1290       N  0.73417659  0.17217321  0.16774630    -0.06100
N1291       N  0.72210737  0.14888992  0.18347574    -0.63200
N1292       N  0.77005851  0.17529186  0.11366716    -0.05000
N1293       N  0.78362258  0.15840349  0.09522443    -0.63900
Mn1294     Mn  0.70293928  0.20172344  0.14038598     1.10700
C1295       C  0.75437220  0.14759530  0.08281191     0.99100
C1296       C  0.75233645  0.13537663  0.19369843     0.99200
N1297       N  0.82956477  0.26986601  0.16841538    -0.06100
N1298       N  0.85556624  0.28240623  0.18219238    -0.61500
N1299       N  0.82730899  0.23492409  0.11431145    -0.05500
N1300       N  0.84525518  0.22250141  0.09597487    -0.58200
N1301       N  0.82665445  0.27024431  0.11411697    -0.06800
N1302       N  0.84430000  0.28260435  0.09556173    -0.61100
N1303       N  0.82970567  0.23444109  0.16855603    -0.05700
N1304       N  0.85559997  0.22228152  0.18258114    -0.58300
Mn1305     Mn  0.79791998  0.30018331  0.14193522     1.20200
Mn1306     Mn  0.79976797  0.20364428  0.14150866     1.10100
Cl1307     Cl  0.75031948  0.25106194  0.14167718    -0.86200
C1308       C  0.87143741  0.25243209  0.19102716     0.96100
C1309       C  0.85562961  0.25244084  0.08430827     0.95900
N1310       N  0.98156122  0.07662175  0.66582132    -0.06400
N1311       N  0.96699947  0.10027722  0.68033842    -0.58500
N1312       N  0.52124876  0.07421711  0.61283040    -0.06100
N1313       N  0.53434502  0.09246912  0.59469765    -0.60600
N1314       N  0.98600982  0.07446304  0.61159877    -0.05700
N1315       N  0.97442381  0.09267201  0.59298025    -0.58500
N1316       N  0.51697921  0.07659116  0.66780620    -0.05300
N1317       N  0.52699868  0.10057057  0.68392627    -0.61000
C1318       C  0.99545642  0.11537442  0.69147664     0.95800
C1319       C  0.50464099  0.10305405  0.58240474     0.95600
N1320       N  0.58014697  0.47992617  0.61519590    -0.06600
N1321       N  0.60065298  0.46823237  0.59771603    -0.59100
N1322       N  0.57935175  0.01540091  0.66955695    -0.04700
N1323       N  0.60513049  0.02756741  0.68363773    -0.60300
N1324       N  0.57820431  0.47928886  0.66952553    -0.06600
N1325       N  0.60355522  0.46696870  0.68395144    -0.59300
N1326       N  0.58068248  0.01473781  0.61532518    -0.04300
N1327       N  0.60071733  0.02705622  0.59792145    -0.60400
Mn1328     Mn  0.55027799  0.04608064  0.64169660     1.18400
C1329       C  0.61330989  0.99709268  0.58712218     0.97900
C1330       C  0.62067031  0.99750283  0.69270823     0.98500
N1331       N  0.92769634  0.01477620  0.60978025    -0.06600
N1332       N  0.91069014  0.02657877  0.59067041    -0.62900
N1333       N  0.91978228  0.48040977  0.66483319    -0.05400
N1334       N  0.89364772  0.46900789  0.67874414    -0.63600
N1335       N  0.92192597  0.01624477  0.66403811    -0.06100
N1336       N  0.89658948  0.02943433  0.67783081    -0.63200
N1337       N  0.92596555  0.47875262  0.61062024    -0.05000
N1338       N  0.90926626  0.46561985  0.59183971    -0.63900
Mn1339     Mn  0.95370481  0.04613976  0.63791853     1.10700
C1340       C  0.90033921  0.99613188  0.57942374     0.99100
C1341       C  0.88047918  0.99996955  0.68687112     0.99200
N1342       N  0.51789609  0.41825740  0.66791258    -0.06100
N1343       N  0.52972747  0.39383612  0.68313972    -0.61500
N1344       N  0.98505302  0.42033595  0.61308207    -0.05500
N1345       N  0.97389228  0.40178945  0.59448408    -0.58200
N1346       N  0.52075734  0.41994348  0.61342529    -0.06800
N1347       N  0.53401837  0.40178001  0.59536435    -0.61100
N1348       N  0.98211454  0.41968964  0.66761943    -0.05700
N1349       N  0.96950310  0.39516027  0.68235845    -0.58300
Mn1350     Mn  0.54991748  0.44859432  0.64166219     1.20200
Mn1351     Mn  0.95246195  0.44900121  0.63936471     1.10100
Cl1352     Cl  0.00220956  0.99797850  0.64049840    -0.86200
C1353       C  0.99942805  0.38086602  0.69248481     0.96100
C1354       C  0.50453094  0.39028011  0.58336843     0.95900
N1355       N  0.97938154  0.42008841  0.33288364    -0.06400
N1356       N  0.96644976  0.39742026  0.31696802    -0.58500
N1357       N  0.51505789  0.42056228  0.38713984    -0.06100
N1358       N  0.52685823  0.40138268  0.40530722    -0.60600
N1359       N  0.97845348  0.42230122  0.38738081    -0.05700
N1360       N  0.96507088  0.40461032  0.40556866    -0.58500
N1361       N  0.51539397  0.41913486  0.33241320    -0.05300
N1362       N  0.52716077  0.39573261  0.31658043    -0.61000
C1363       C  0.99616074  0.38289037  0.30702687     0.95800
C1364       C  0.49644559  0.39048390  0.41622925     0.95600
N1365       N  0.57614470  0.01269067  0.38860367    -0.06600
N1366       N  0.59484986  0.02467957  0.40696783    -0.59100
N1367       N  0.57828845  0.47776237  0.33331842    -0.04700
N1368       N  0.60255979  0.46477380  0.31855086    -0.60300
N1369       N  0.57977960  0.01164622  0.33399262    -0.06600
N1370       N  0.60441595  0.02316757  0.31904553    -0.59300
N1371       N  0.57575538  0.47859194  0.38783943    -0.04300
N1372       N  0.59427423  0.46619382  0.40619569    -0.60400
Mn1373     Mn  0.54684393  0.44817239  0.35999851     1.18400
C1374       C  0.60575481  0.49627380  0.41750486     0.97900
C1375       C  0.61845843  0.99260623  0.30994658     0.98500
N1376       N  0.92127177  0.48351351  0.38635592    -0.06600
N1377       N  0.90346493  0.47226526  0.40512655    -0.62900
N1378       N  0.92184527  0.01753372  0.33126528    -0.05400
N1379       N  0.89726699  0.03006999  0.31632315    -0.63600
N1380       N  0.92029909  0.48213150  0.33158318    -0.06100
N1381       N  0.89581156  0.47004577  0.31648274    -0.63200
N1382       N  0.92359857  0.01913312  0.38572332    -0.05000
N1383       N  0.90606080  0.03275722  0.40393356    -0.63900
Mn1384     Mn  0.94908604  0.45123074  0.35938392     1.10700
C1385       C  0.89332155  0.50305787  0.41604701     0.99100
C1386       C  0.88190460  0.00013523  0.30713781     0.99200
N1387       N  0.52102663  0.07356375  0.33198189    -0.06100
N1388       N  0.53517147  0.09659305  0.31689675    -0.61500
N1389       N  0.98391241  0.07669640  0.38525121    -0.05500
N1390       N  0.97143479  0.09617157  0.40296934    -0.58200
N1391       N  0.51847952  0.07421454  0.38644368    -0.06800
N1392       N  0.53055106  0.09273107  0.40478989    -0.61100
N1393       N  0.98535178  0.07604470  0.33073196    -0.05700
N1394       N  0.97448034  0.10038538  0.31513927    -0.58300
Mn1395     Mn  0.54956103  0.04373752  0.36016075     1.20200
Mn1396     Mn  0.95296402  0.04811100  0.35794703     1.10100
Cl1397     Cl  0.99893724  0.49790833  0.35938296    -0.86200
C1398       C  0.00546263  0.11315921  0.30591421     0.96100
C1399       C  0.50032991  0.10560145  0.41512142     0.95900
C1400       C  0.50450883  0.27995128  0.51226758     0.02000
C1401       C  0.50320469  0.28026209  0.48732339     0.02000
C1402       C  0.50307261  0.24762651  0.47496272    -0.18500
C1403       C  0.50366338  0.21470557  0.48700009     0.02000
C1404       C  0.50435478  0.21436876  0.51194501     0.02000
C1405       C  0.50517341  0.24703107  0.52431132    -0.18500
H1406       H  0.50564008  0.24682743  0.54355947     0.04000
H1407       H  0.50216020  0.24784606  0.45571766     0.04000
C1408       C  0.78585087  0.99634292  0.51141266     0.02000
C1409       C  0.78418336  0.00073382  0.48662269     0.02000
C1410       C  0.75052961  0.99950219  0.47528124    -0.18500
C1411       C  0.71857694  0.99541570  0.48813724     0.02000
C1412       C  0.72017204  0.99399366  0.51313969     0.02000
C1413       C  0.75390142  0.99393171  0.52437513    -0.18500
H1414       H  0.75532519  0.99218259  0.54357756     0.04000
H1415       H  0.74918116  0.00126166  0.45608223     0.04000
C1416       C  0.50266673  0.24660401  0.25196377    -0.02800
C1417       C  0.99532980  0.35171471  0.29064278    -0.00400
C1418       C  0.46916236  0.32472755  0.29338784    -0.12300
C1419       C  0.47014512  0.29194120  0.28103130     0.01800
C1420       C  0.99857022  0.28510834  0.26525202    -0.00500
C1421       C  0.02209451  0.31420637  0.26020287    -0.12200
C1422       C  0.02143611  0.34639697  0.27312058     0.01700
H1423       H  0.44794467  0.32942602  0.30615783     0.14700
H1424       H  0.04127145  0.31264671  0.24595138     0.14700
C1425       C  0.04692785  0.37423384  0.26729579     0.36300
C1426       C  0.44138939  0.26726737  0.28620189     0.36200
N1427       N  0.06719502  0.39661032  0.26249297    -0.44000
N1428       N  0.41756337  0.24904393  0.29146972    -0.44000
C1429       C  0.00643624  0.21383782  0.26769559    -0.00400
C1430       C  0.00944698  0.18036931  0.25554675    -0.12300
C1431       C  0.00925164  0.14734249  0.26750244     0.01800
C1432       C  0.00748259  0.14682221  0.29229107    -0.00500
C1433       C  0.50984095  0.17773248  0.30494521    -0.12200
C1434       C  0.50980863  0.21096517  0.29319788     0.01700
H1435       H  0.00915914  0.17988175  0.23633092     0.14700
H1436       H  0.51089780  0.17698835  0.32419592     0.14700
C1437       C  0.51492194  0.24178570  0.30833729     0.36300
C1438       C  0.00876178  0.11442056  0.25392177     0.36200
N1439       N  0.51952399  0.26561783  0.32121416    -0.44000
N1440       N  0.00811498  0.08806330  0.24300986    -0.44000
C1441       C  0.50047649  0.12985683  0.43605544    -0.00400
C1442       C  0.53358734  0.14422668  0.44355726    -0.12300
C1443       C  0.53534822  0.16970965  0.46170232     0.01800
C1444       C  0.50356462  0.18167711  0.47255938    -0.00500
C1445       C  0.97165667  0.16648741  0.46632677    -0.12200
C1446       C  0.97006258  0.14038500  0.44838897     0.01700
H1447       H  0.55818439  0.13670604  0.43460098     0.14700
H1448       H  0.94719184  0.17493070  0.47515116     0.14700
C1449       C  0.93565472  0.12398374  0.44342046     0.36300
C1450       C  0.56992893  0.18441258  0.46826045     0.36200
N1451       N  0.90800768  0.11085784  0.43962099    -0.44000
N1452       N  0.59762526  0.19611122  0.47363348    -0.44000
C1453       C  0.49622279  0.36608028  0.43710571    -0.00400
C1454       C  0.52905939  0.35897494  0.44881782    -0.12300
C1455       C  0.53154178  0.33272116  0.46654572     0.01800
C1456       C  0.50061163  0.31364402  0.47325640    -0.00500
C1457       C  0.96636836  0.32092568  0.46169534    -0.12200
C1458       C  0.96352917  0.34710268  0.44397638     0.01700
H1459       H  0.55330723  0.37281033  0.44341921     0.14700
H1460       H  0.94377425  0.30324675  0.46502168     0.14700
C1461       C  0.93017547  0.34910969  0.43073451     0.36300
C1462       C  0.56651680  0.32401653  0.47630488     0.36200
N1463       N  0.90336872  0.35062558  0.42019596    -0.44000
N1464       N  0.59464757  0.31706701  0.48399537    -0.44000
C1465       C  0.63031107  0.49604361  0.43843266    -0.00400
C1466       C  0.65075698  0.46490653  0.44281759    -0.12300
C1467       C  0.67777033  0.46455267  0.46017313     0.01800
C1468       C  0.68482405  0.99210945  0.47428918    -0.00500
C1469       C  0.66175323  0.02183359  0.47233782    -0.12200
C1470       C  0.63467463  0.02281429  0.45486539     0.01700
H1471       H  0.64717956  0.44135032  0.43171736     0.14700
H1472       H  0.66619434  0.04508401  0.48359593     0.14700
C1473       C  0.61230144  0.05449115  0.45336655     0.36300
C1474       C  0.70071391  0.43321259  0.46201703     0.36200
N1475       N  0.59446955  0.08000508  0.45235459    -0.44000
N1476       N  0.71930379  0.40826294  0.46346871    -0.44000
C1477       C  0.86958292  0.50470234  0.43698821    -0.00400
C1478       C  0.84743738  0.03439339  0.43914686    -0.12300
C1479       C  0.82055398  0.03457483  0.45638635     0.01800
C1480       C  0.81668976  0.00480889  0.47169973    -0.00500
C1481       C  0.84014204  0.47668967  0.47071512    -0.12200
C1482       C  0.86733931  0.47636716  0.45363685     0.01700
H1483       H  0.84891540  0.05658784  0.42670765     0.14700
H1484       H  0.83725564  0.45394138  0.48259046     0.14700
C1485       C  0.89297332  0.44716283  0.45402578     0.36300
C1486       C  0.79686005  0.06536408  0.45779603     0.36200
N1487       N  0.91378685  0.42398346  0.45477067    -0.44000
N1488       N  0.77798160  0.09010907  0.45896395    -0.44000
C1489       C  0.68812503  0.99541803  0.52865504    -0.00400
C1490       C  0.68298936  0.02693255  0.54182844    -0.12300
C1491       C  0.65918656  0.02800275  0.56090502     0.01800
C1492       C  0.63845472  0.99733209  0.56662181    -0.00500
C1493       C  0.64140007  0.46926114  0.55254667    -0.12200
C1494       C  0.66612759  0.46828240  0.53385764     0.01700
H1495       H  0.69956164  0.05023174  0.53812681     0.14700
H1496       H  0.62552144  0.44559068  0.55628870     0.14700
C1497       C  0.67137774  0.43475959  0.52148492     0.36300
C1498       C  0.65933467  0.05998139  0.57543930     0.36200
N1499       N  0.67536060  0.40743749  0.51202694    -0.44000
N1500       N  0.65974203  0.08560186  0.58709948    -0.44000
C1501       C  0.87631595  0.99509090  0.55839326    -0.00400
C1502       C  0.85482588  0.46303970  0.55452768    -0.12300
C1503       C  0.82678850  0.46293512  0.53796443     0.01800
C1504       C  0.82009145  0.99415183  0.52475237    -0.00500
C1505       C  0.84134957  0.02494879  0.52738698    -0.12200
C1506       C  0.86964405  0.02556195  0.54393646     0.01700
H1507       H  0.85927062  0.43931233  0.56536497     0.14700
H1508       H  0.83482682  0.04895931  0.51727725     0.14700
C1509       C  0.89113460  0.05771967  0.54569494     0.36300
C1510       C  0.80543551  0.43075834  0.53530731     0.36200
N1511       N  0.90851441  0.08342472  0.54690699    -0.44000
N1512       N  0.78827122  0.40503780  0.53313848    -0.44000
C1513       C  0.50440476  0.12740192  0.56149165    -0.00400
C1514       C  0.97246940  0.14629661  0.55556617    -0.12300
C1515       C  0.97134002  0.17244564  0.53778973     0.01800
C1516       C  0.50265701  0.18094302  0.52600498    -0.00500
C1517       C  0.53415119  0.16104696  0.53010346    -0.12200
C1518       C  0.53517077  0.13410154  0.54752349     0.01700
H1519       H  0.94814347  0.14077788  0.56539763     0.14700
H1520       H  0.55832604  0.16754744  0.52034997     0.14700
C1521       C  0.56797478  0.11379515  0.55040793     0.36300
C1522       C  0.93770864  0.19065531  0.53286632     0.36200
N1523       N  0.59434742  0.09742997  0.55226318    -0.44000
N1524       N  0.91080041  0.20525687  0.52884688    -0.44000
C1525       C  0.50387540  0.31306407  0.52662680    -0.00400
C1526       C  0.53658446  0.32763969  0.53430663    -0.12300
C1527       C  0.53756119  0.35436560  0.55175069     0.01800
C1528       C  0.50513836  0.36629264  0.56228836    -0.00500
C1529       C  0.97337096  0.35691255  0.55191849    -0.12200
C1530       C  0.97261273  0.33053343  0.53419956     0.01700
H1531       H  0.56157372  0.31681942  0.52749729     0.14700
H1532       H  0.94820490  0.36872825  0.55770484     0.14700
C1533       C  0.93838779  0.31948521  0.52439842     0.36300
C1534       C  0.57238314  0.36776878  0.55891201     0.36200
N1535       N  0.91104666  0.31044696  0.51650434    -0.44000
N1536       N  0.60041925  0.37829103  0.56458748    -0.44000
C1537       C  0.60035209  0.24433033  0.20703280    -0.00400
C1538       C  0.60340349  0.25042841  0.23132408    -0.12300
C1539       C  0.57309610  0.24974291  0.24600497     0.01800
C1540       C  0.53765706  0.24532116  0.23617181    -0.00500
C1541       C  0.53580010  0.23654341  0.21167116    -0.12200
C1542       C  0.56647804  0.23604175  0.19731055     0.01700
H1543       H  0.62981451  0.25551269  0.23893341     0.14700
H1544       H  0.51058603  0.22902985  0.20342794     0.14700
C1545       C  0.56258295  0.22696602  0.17250888     0.36300
C1546       C  0.58007347  0.25533232  0.27093194     0.36200
N1547       N  0.55967006  0.21956077  0.15265031    -0.44000
N1548       N  0.58769814  0.26042191  0.29057777    -0.44000
C1549       C  0.96679506  0.24676708  0.23603644    -0.00400
C1550       C  0.96228038  0.27479358  0.21915275    -0.12300
C1551       C  0.93192297  0.27735367  0.20433805     0.01800
C1552       C  0.90409151  0.25195702  0.20626503    -0.00500
C1553       C  0.90752062  0.22444468  0.22291576    -0.12200
C1554       C  0.93745694  0.22175904  0.23803041     0.01700
H1555       H  0.98328798  0.29472846  0.21720505     0.14700
H1556       H  0.88569621  0.20528167  0.22468307     0.14700
C1557       C  0.93372665  0.19468566  0.25619783     0.36300
C1558       C  0.93111067  0.30523070  0.18650089     0.36200
N1559       N  0.92889354  0.17297917  0.27054978    -0.44000
N1560       N  0.93076354  0.32745365  0.17211815    -0.44000
C1561       C  0.75652496  0.12414845  0.06165654    -0.00400
C1562       C  0.78753098  0.10293141  0.05896200    -0.12300
C1563       C  0.78908073  0.07607988  0.04173822     0.01800
C1564       C  0.75939880  0.07041298  0.02645792    -0.00500
C1565       C  0.72968982  0.09370242  0.02764161    -0.12200
C1566       C  0.72803307  0.12053909  0.04508283     0.01700
H1567       H  0.80993348  0.10579985  0.07124483     0.14700
H1568       H  0.70687080  0.08955520  0.01586885     0.14700
C1569       C  0.69678632  0.14365741  0.04562824     0.36300
C1570       C  0.82058919  0.05321294  0.04106138     0.36200
N1571       N  0.67177751  0.16227060  0.04588417    -0.44000
N1572       N  0.84571483  0.03475517  0.04063378    -0.44000
C1573       C  0.75161349  0.43900693  0.02954291    -0.00400
C1574       C  0.78279299  0.43265391  0.04298960    -0.12300
C1575       C  0.78259969  0.40884849  0.06214713     0.01800
C1576       C  0.75113214  0.38892011  0.06730448    -0.00500
C1577       C  0.72009977  0.39479651  0.05342995    -0.12200
C1578       C  0.71986416  0.42022031  0.03504816     0.01700
H1579       H  0.80668913  0.44850725  0.03957476     0.14700
H1580       H  0.69557228  0.38050894  0.05750279     0.14700
C1581       C  0.68605264  0.42892606  0.02364051     0.36300
C1582       C  0.81395877  0.40853921  0.07744021     0.36200
N1583       N  0.65878022  0.43617774  0.01479998    -0.44000
N1584       N  0.83901670  0.40881663  0.08975392    -0.44000
C1585       C  0.74901361  0.06827652  0.97307938    -0.00400
C1586       C  0.71644115  0.07522339  0.96129279    -0.12300
C1587       C  0.71400744  0.10170862  0.94377964     0.01800
C1588       C  0.74472457  0.12232226  0.93802237    -0.00500
C1589       C  0.77697842  0.11625589  0.95064154    -0.12200
C1590       C  0.77942299  0.08926915  0.96790356     0.01700
H1591       H  0.69320152  0.05861617  0.96505233     0.14700
H1592       H  0.80078358  0.13173072  0.94642775     0.14700
C1593       C  0.81397169  0.08193631  0.97875302     0.36300
C1594       C  0.68031145  0.10501278  0.93102946     0.36200
N1595       N  0.84180547  0.07606425  0.98725894    -0.44000
N1596       N  0.65330349  0.10748284  0.92079518    -0.44000
C1597       C  0.74803824  0.43629773  0.97550866    -0.00400
C1598       C  0.71517769  0.42534908  0.96573018    -0.12300
C1599       C  0.71374968  0.39933302  0.94784368     0.01800
C1600       C  0.74610937  0.38449998  0.93876101    -0.00500
C1601       C  0.77888658  0.39401406  0.94968518    -0.12200
C1602       C  0.78006002  0.41968280  0.96790360     0.01700
H1603       H  0.69060280  0.43867198  0.97119507     0.14700
H1604       H  0.80387081  0.38256283  0.94333814     0.14700
C1605       C  0.81459440  0.43040150  0.97736691     0.36300
C1606       C  0.67861071  0.38996844  0.93868716     0.36200
N1607       N  0.84230695  0.43898343  0.98490907    -0.44000
N1608       N  0.65028256  0.38264396  0.93155649    -0.44000
C1609       C  0.99474933  0.20995031  0.73664966    -0.00400
C1610       C  0.96660630  0.20390572  0.72012636    -0.12300
C1611       C  0.96552924  0.17307163  0.70576556     0.01800
C1612       C  0.99267722  0.14653689  0.70794559    -0.00500
C1613       C  0.51780594  0.14929724  0.72673275    -0.12200
C1614       C  0.51730847  0.17910554  0.74202508     0.01700
H1615       H  0.94662373  0.22469854  0.71715783     0.14700
H1616       H  0.53719762  0.12785685  0.72974247     0.14700
C1617       C  0.53789975  0.17502504  0.76368542     0.36300
C1618       C  0.93769599  0.17096451  0.68782723     0.36200
N1619       N  0.55427220  0.17085799  0.78102359    -0.44000
N1620       N  0.91533502  0.16942884  0.67347276    -0.44000
C1621       C  0.99873216  0.28127910  0.73267016    -0.00400
C1622       C  0.49601731  0.31458339  0.74398902    -0.12300
C1623       C  0.49564895  0.34687114  0.73115233     0.01800
C1624       C  0.99946848  0.34750473  0.70671323    -0.00500
C1625       C  0.00414185  0.31467001  0.69511152    -0.12200
C1626       C  0.00405863  0.28183229  0.70746234     0.01700
H1627       H  0.49303756  0.31606947  0.76307731     0.14700
H1628       H  0.00797910  0.31476296  0.67603164     0.14700
C1629       C  0.01145978  0.25075709  0.69299541     0.36300
C1630       C  0.49074456  0.38038526  0.74364993     0.36200
N1631       N  0.01785739  0.22688250  0.68050828    -0.44000
N1632       N  0.48649702  0.40727558  0.75359360    -0.44000
C1633       C  0.52984165  0.25133864  0.76583589    -0.00400
C1634       C  0.52743521  0.26099540  0.79014994    -0.12300
C1635       C  0.55798849  0.26290081  0.80493113     0.01800
C1636       C  0.59242156  0.25655210  0.79559872    -0.00500
C1637       C  0.59581619  0.25026058  0.77137822    -0.12200
C1638       C  0.56552655  0.24843017  0.75643331     0.01700
H1639       H  0.50185002  0.26768765  0.79799081     0.14700
H1640       H  0.62249492  0.24630305  0.76408273     0.14700
C1641       C  0.57299891  0.24105995  0.73185473     0.36300
C1642       C  0.55324682  0.27094974  0.82977609     0.36200
N1643       N  0.58138081  0.23467618  0.71257984    -0.44000
N1644       N  0.54932889  0.27733380  0.84968578    -0.44000
C1645       C  0.95990330  0.24837798  0.76412373    -0.00400
C1646       C  0.95635975  0.22374679  0.78314102    -0.12300
C1647       C  0.92608879  0.22345733  0.79798592     0.01800
C1648       C  0.89753604  0.24797339  0.79414110    -0.00500
C1649       C  0.89921880  0.27067046  0.77443159    -0.12200
C1650       C  0.92858470  0.26983011  0.75881724     0.01700
H1651       H  0.97811701  0.20511303  0.78692058     0.14700
H1652       H  0.87639343  0.28802422  0.77050803     0.14700
C1653       C  0.92278966  0.28838105  0.73659089     0.36300
C1654       C  0.92581601  0.19853418  0.81762369     0.36200
N1655       N  0.91727517  0.30322099  0.71887059    -0.44000
N1656       N  0.92562971  0.17850087  0.83333923    -0.44000
C1657       C  0.84791397  0.00178145  0.70193565    -0.00400
C1658       C  0.84245134  0.03254869  0.71573038    -0.12300
C1659       C  0.81243302  0.03630240  0.73045517     0.01800
C1660       C  0.78722212  0.00742730  0.73273048    -0.00500
C1661       C  0.78884588  0.47848737  0.71682079    -0.12200
C1662       C  0.81896485  0.47474875  0.70214687     0.01700
H1663       H  0.86181143  0.05430052  0.71481144     0.14700
H1664       H  0.76956816  0.45668423  0.71719376     0.14700
C1665       C  0.82207432  0.44256968  0.68796697     0.36300
C1666       C  0.80815210  0.07157322  0.74072797     0.36200
N1667       N  0.82461908  0.41667073  0.67670623    -0.44000
N1668       N  0.80558426  0.10047107  0.74820191    -0.44000
C1669       C  0.72066662  0.00194572  0.73343830    -0.00400
C1670       C  0.69848370  0.46982492  0.73244464    -0.12300
C1671       C  0.66599370  0.46734076  0.71975598     0.01800
C1672       C  0.65500960  0.99763002  0.70650245    -0.00500
C1673       C  0.67681884  0.02822058  0.70546303    -0.12200
C1674       C  0.70958551  0.03024058  0.71784505     0.01700
H1675       H  0.70816262  0.44546837  0.74082186     0.14700
H1676       H  0.66847071  0.05083159  0.69454343     0.14700
C1677       C  0.73009511  0.06262616  0.71430789     0.36300
C1678       C  0.64693462  0.43353616  0.72025127     0.36200
N1679       N  0.74499334  0.08926086  0.71049801    -0.44000
N1680       N  0.63187201  0.40634465  0.72072945    -0.44000
C1681       C  0.75123326  0.03791621  0.76792924    -0.00400
C1682       C  0.71903081  0.05855862  0.76919082    -0.12300
C1683       C  0.71607868  0.08943249  0.78337615     0.01800
C1684       C  0.74509226  0.10009385  0.79792167    -0.00500
C1685       C  0.77537037  0.07758393  0.79915102    -0.12200
C1686       C  0.77834037  0.04653047  0.78511269     0.01700
H1687       H  0.69525788  0.05086910  0.75937784     0.14700
H1688       H  0.79723201  0.08436105  0.81118265     0.14700
C1689       C  0.81092368  0.02583770  0.78825760     0.36300
C1690       C  0.68296060  0.10981332  0.78221559     0.36200
N1691       N  0.83777339  0.01084879  0.79175994    -0.44000
N1692       N  0.65630893  0.12595569  0.78119819    -0.44000
C1693       C  0.75530505  0.47188164  0.76747502    -0.00400
C1694       C  0.72559774  0.46609402  0.78268300    -0.12300
C1695       C  0.72220094  0.43503127  0.79650423     0.01800
C1696       C  0.74922937  0.40839539  0.79592756    -0.00500
C1697       C  0.78020835  0.41497488  0.78272205    -0.12200
C1698       C  0.78423330  0.44631433  0.76921884     0.01700
H1699       H  0.70383648  0.48557980  0.78300555     0.14700
H1700       H  0.80206155  0.39553114  0.78329043     0.14700
C1701       C  0.81983018  0.45125154  0.75969688     0.36300
C1702       C  0.69123916  0.43214247  0.81171477     0.36200
N1703       N  0.84893167  0.45419845  0.75276605    -0.44000
N1704       N  0.66649543  0.43018668  0.82399804    -0.44000
C1705       C  0.56416237  0.24950660  0.02742162    -0.00400
C1706       C  0.58061401  0.28196095  0.03365520    -0.12300
C1707       C  0.60652727  0.28320342  0.05177593     0.01800
C1708       C  0.61664290  0.25121327  0.06385793    -0.00500
C1709       C  0.60138062  0.21844791  0.05653405    -0.12200
C1710       C  0.57527707  0.21740764  0.03857320     0.01700
H1711       H  0.57165224  0.30671568  0.02525460     0.14700
H1712       H  0.60876498  0.19363133  0.06544420     0.14700
C1713       C  0.55938877  0.18326489  0.03231916     0.36300
C1714       C  0.62088544  0.31797333  0.05802979     0.36200
N1715       N  0.54672187  0.15591597  0.02722831    -0.44000
N1716       N  0.63199531  0.34601881  0.06304108    -0.44000
C1717       C  0.87931355  0.25154906  0.06322857    -0.00400
C1718       C  0.89699270  0.21906906  0.05789575    -0.12300
C1719       C  0.92346066  0.21754794  0.04046619     0.01800
C1720       C  0.93217693  0.24874152  0.02760411    -0.00500
C1721       C  0.91271926  0.28049734  0.03150739    -0.12200
C1722       C  0.88644080  0.28219961  0.04916069     0.01700
H1723       H  0.89150416  0.19504753  0.06814799     0.14700
H1724       H  0.91947356  0.30456003  0.02161984     0.14700
C1725       C  0.86787916  0.31588169  0.05253272     0.36300
C1726       C  0.94245673  0.18407447  0.03687818     0.36200
N1727       N  0.85308939  0.34302524  0.05497370    -0.44000
N1728       N  0.95758796  0.15715331  0.03416699    -0.44000
C1729       C  0.61751357  0.26172174  0.93918779    -0.00400
C1730       C  0.59491853  0.29179704  0.94174182    -0.12300
C1731       C  0.56812410  0.29248659  0.95903069     0.01800
C1732       C  0.56349463  0.26260740  0.97418619    -0.00500
C1733       C  0.58806566  0.23394567  0.97302353    -0.12200
C1734       C  0.61518495  0.23345512  0.95587291     0.01700
H1735       H  0.59697466  0.31417030  0.92948138     0.14700
H1736       H  0.58503264  0.21107061  0.98475853     0.14700
C1737       C  0.64041898  0.20388631  0.95603307     0.36300
C1738       C  0.54479976  0.32360041  0.96028701     0.36200
N1739       N  0.66087944  0.18037181  0.95647545    -0.44000
N1740       N  0.52596785  0.34840851  0.96122781    -0.44000
C1741       C  0.93170019  0.25638506  0.97445943    -0.00400
C1742       C  0.91818467  0.28921459  0.96612796    -0.12300
C1743       C  0.89192768  0.29028872  0.94823861     0.01800
C1744       C  0.87875484  0.25773316  0.93835211    -0.00500
C1745       C  0.89103329  0.22488886  0.94784653    -0.12200
C1746       C  0.91752398  0.22400444  0.96557295     0.01700
H1747       H  0.92955342  0.31410745  0.97282119     0.14700
H1748       H  0.88121292  0.19967909  0.94066875     0.14700
C1749       C  0.93174021  0.18960189  0.97303284     0.36300
C1750       C  0.88062447  0.32527845  0.93986132     0.36200
N1751       N  0.94326102  0.16197685  0.97879894    -0.44000
N1752       N  0.87196873  0.35348802  0.93321720    -0.44000
C1753       C  0.84922020  0.00044743  0.29179621    -0.00400
C1754       C  0.82332478  0.02742537  0.29502395    -0.12300
C1755       C  0.79087905  0.02767380  0.28210131     0.01800
C1756       C  0.78327259  0.00036897  0.26493708    -0.00500
C1757       C  0.81002466  0.47396554  0.26123449    -0.12200
C1758       C  0.84215150  0.47358653  0.27442086     0.01700
H1759       H  0.82802372  0.04808610  0.30826625     0.14700
H1760       H  0.80769834  0.45389754  0.24749912     0.14700
C1761       C  0.86854066  0.44606499  0.26929941     0.36300
C1762       C  0.76563343  0.05601460  0.28765229     0.36200
N1763       N  0.88962661  0.42404829  0.26505308    -0.44000
N1764       N  0.74565777  0.07870376  0.29261238    -0.44000
C1765       C  0.65071093  0.99198260  0.29478899    -0.00400
C1766       C  0.64694281  0.99782124  0.27048926    -0.12300
C1767       C  0.67707794  0.99970457  0.25567035     0.01800
C1768       C  0.71287008  0.99785034  0.26532357    -0.00500
C1769       C  0.71496163  0.49091592  0.28945977    -0.12200
C1770       C  0.68447671  0.48904946  0.30392489     0.01700
H1771       H  0.62011999  0.00095846  0.26300707     0.14700
H1772       H  0.74066574  0.48571439  0.29785518     0.14700
C1773       C  0.68919898  0.48217137  0.32897661     0.36300
C1774       C  0.66933600  0.00467635  0.23077465     0.36200
N1775       N  0.69284770  0.47660845  0.34905050    -0.44000
N1776       N  0.66096030  0.00905002  0.21117510    -0.44000
C1777       C  0.74976622  0.03749001  0.23555100    -0.00400
C1778       C  0.72399177  0.06523528  0.23896106    -0.12300
C1779       C  0.72474059  0.09745866  0.22608622     0.01800
C1780       C  0.75265521  0.10395624  0.20995087    -0.00500
C1781       C  0.78048889  0.07869028  0.20814366    -0.12200
C1782       C  0.77950624  0.04600466  0.22055743     0.01700
H1783       H  0.70305185  0.06265451  0.25199490     0.14700
H1784       H  0.80240914  0.08365079  0.19597122     0.14700
C1785       C  0.80831208  0.02092016  0.21571923     0.36300
C1786       C  0.69699900  0.12393628  0.23039890     0.36200
N1787       N  0.83149517  0.00130021  0.21114305    -0.44000
N1788       N  0.67478626  0.14511844  0.23394668    -0.44000
C1789       C  0.74485009  0.46708675  0.23267947    -0.00400
C1790       C  0.74379780  0.43329132  0.24449302    -0.12300
C1791       C  0.74479379  0.40062133  0.23222845     0.01000
C1792       C  0.74616495  0.40065395  0.20744983    -0.00500
C1793       C  0.74430162  0.43325743  0.19523411    -0.12200
C1794       C  0.74254501  0.46620526  0.20727001     0.01700
H1795       H  0.74382179  0.43241594  0.26371120     0.14700
H1796       H  0.74335704  0.43284549  0.17597659     0.14700
C1797       C  0.73551355  0.49702371  0.19235407     0.36300
C1798       C  0.74462358  0.36734633  0.24542917     0.36200
N1799       N  0.72930808  0.52090342  0.17976342    -0.44000
N1800       N  0.74437737  0.34061778  0.25594945    -0.44000
C1801       C  0.74759350  0.00091211  0.24944268    -0.02800
C1802       C  0.96553668  0.74954210  0.01304411     0.02000
C1803       C  0.96511123  0.75587601  0.98846691     0.02000
C1804       C  0.49708365  0.76120198  0.97666070    -0.18500
C1805       C  0.53023277  0.75961364  0.98866072     0.02000
C1806       C  0.53069522  0.75163473  0.01314281     0.02000
C1807       C  0.49811802  0.74700182  0.02508960    -0.18500
H1808       H  0.49845488  0.74233240  0.04409356     0.04000
H1809       H  0.49650830  0.76565079  0.95763868     0.04000
C1810       C  0.75270101  0.50564225  0.75062563    -0.02800
C1811       C  0.49527070  0.74681804  0.74934557    -0.02800
C1812       C  0.74987671  0.96989287  0.98922773     0.02000
C1813       C  0.75375020  0.97109377  0.01408891     0.02000
C1814       C  0.75333640  0.50462343  0.02565173    -0.18500
C1815       C  0.75342868  0.53689412  0.01286830     0.02000
C1816       C  0.74940643  0.53578902  0.98801697     0.02000
C1817       C  0.74734532  0.50241363  0.97653104    -0.18500
H1818       H  0.74499850  0.50157626  0.95734058     0.04000
H1819       H  0.75513565  0.50546376  0.04486927     0.04000
N1820       N  0.72828966  0.83327000  0.88664461    -0.06400
N1821       N  0.71543303  0.85105350  0.90495289    -0.58500
N1822       N  0.76446693  0.83245950  0.83260008    -0.06100
N1823       N  0.77759373  0.85728410  0.81838936    -0.60600
N1824       N  0.72901330  0.83360121  0.83237299    -0.05700
N1825       N  0.71753757  0.85942634  0.81807274    -0.58500
N1826       N  0.76362649  0.83272509  0.88726743    -0.05300
N1827       N  0.77548105  0.85021961  0.90618707    -0.61000
C1828       C  0.74502769  0.86153910  0.91710083     0.95800
C1829       C  0.74811202  0.87386563  0.80934978     0.95600
N1830       N  0.82453444  0.73477973  0.83484477    -0.06600
N1831       N  0.84927956  0.72091375  0.82076519    -0.59100
N1832       N  0.82246595  0.77311242  0.88826555    -0.04700
N1833       N  0.84157131  0.78633385  0.90599840    -0.60300
N1834       N  0.82192690  0.73784248  0.88921029    -0.06600
N1835       N  0.84077291  0.72632360  0.90765747    -0.59300
N1836       N  0.82499896  0.77020404  0.83373822    -0.04300
N1837       N  0.84995705  0.78093711  0.81864559    -0.60400
Mn1838     Mn  0.79456534  0.80284982  0.86017495     1.18400
C1839       C  0.86483921  0.74989100  0.81060267     0.97900
C1840       C  0.85279669  0.75691867  0.91807575     0.98500
N1841       N  0.66643696  0.77411506  0.83289118    -0.06600
N1842       N  0.64134332  0.78661078  0.81831358    -0.62900
N1843       N  0.66787072  0.74075705  0.88807076    -0.05400
N1844       N  0.65017980  0.72971286  0.90695107    -0.63600
N1845       N  0.66825706  0.77605514  0.88720857    -0.06100
N1846       N  0.65075089  0.78979766  0.90538374    -0.63200
N1847       N  0.66584569  0.73866276  0.83337937    -0.05000
N1848       N  0.64044734  0.72645443  0.81896758    -0.63900
Mn1849     Mn  0.69741892  0.80490543  0.85943344     1.10700
C1850       C  0.62575155  0.75662249  0.80951033     0.99100
C1851       C  0.63981417  0.76061486  0.91768038     0.99200
N1852       N  0.76129902  0.67960940  0.88965884    -0.06100
N1853       N  0.77310235  0.65989083  0.90756339    -0.61500
N1854       N  0.72635920  0.67616525  0.83505409    -0.05500
N1855       N  0.71385442  0.65054250  0.82101790    -0.58200
N1856       N  0.76183667  0.67531923  0.83558342    -0.06800
N1857       N  0.77391526  0.64911593  0.82194944    -0.61100
N1858       N  0.72595164  0.68014231  0.88918213    -0.05700
N1859       N  0.71299129  0.66080779  0.90675618    -0.58300
Mn1860     Mn  0.79301367  0.70625926  0.86216828     1.20200
Mn1861     Mn  0.69578354  0.70828485  0.86115790     1.10100
Cl1862     Cl  0.74521642  0.75551892  0.86027803    -0.86200
C1863       C  0.74266733  0.64833088  0.91813223     0.96100
C1864       C  0.74378675  0.63402878  0.81274916     0.95900
N1865       N  0.67208279  0.73179722  0.16684524    -0.06400
N1866       N  0.64782276  0.71822594  0.18129648    -0.58500
N1867       N  0.67400843  0.76927723  0.11302624    -0.06100
N1868       N  0.65446858  0.78197583  0.09525908    -0.60600
N1869       N  0.67448521  0.73394558  0.11259660    -0.05700
N1870       N  0.65525897  0.72189544  0.09452182    -0.58500
N1871       N  0.67137369  0.76721717  0.16752329    -0.05300
N1872       N  0.64662696  0.77836342  0.18262915    -0.61000
C1873       C  0.63253929  0.74749765  0.19127369     0.95800
C1874       C  0.64304262  0.75215861  0.08372630     0.95600
N1875       N  0.76826258  0.82974728  0.11538853    -0.06600
N1876       N  0.78144923  0.85043471  0.09865627    -0.59100
N1877       N  0.73175738  0.82837495  0.16897563    -0.04700
N1878       N  0.71851598  0.85211177  0.18397867    -0.60300
N1879       N  0.76724438  0.82897294  0.16948063    -0.06600
N1880       N  0.77867577  0.85324376  0.18487775    -0.59300
N1881       N  0.73292055  0.82986949  0.11464391    -0.04300
N1882       N  0.72135401  0.85088957  0.09722841    -0.60400
Mn1883     Mn  0.70175828  0.79942630  0.14117376     1.18400
C1884       C  0.75207227  0.86360232  0.08744341     0.97900
C1885       C  0.74799623  0.86683180  0.19410547     0.98500
N1886       N  0.73517694  0.67584740  0.11247282    -0.06600
N1887       N  0.72377260  0.65882054  0.09329296    -0.62900
N1888       N  0.76969465  0.67334720  0.16781879    -0.05400
N1889       N  0.78215295  0.64990608  0.18348128    -0.63600
N1890       N  0.73426364  0.67286034  0.16729114    -0.06100
N1891       N  0.72200119  0.64930916  0.18277168    -0.63200
N1892       N  0.77048927  0.67605900  0.11331660    -0.05000
N1893       N  0.78389893  0.65919068  0.09479807    -0.63900
Mn1894     Mn  0.70335159  0.70276852  0.13992430     1.10700
C1895       C  0.75451886  0.64877979  0.08234117     0.99100
C1896       C  0.75211357  0.63543247  0.19293914     0.99200
N1897       N  0.83038588  0.76981787  0.16867050    -0.06100
N1898       N  0.85648391  0.78213363  0.18246726    -0.61500
N1899       N  0.82817156  0.73528508  0.11439457    -0.05500
N1900       N  0.84583783  0.72275595  0.09598523    -0.58200
N1901       N  0.82785706  0.77061085  0.11428294    -0.06800
N1902       N  0.84547689  0.78286998  0.09566753    -0.61100
N1903       N  0.83040216  0.73439320  0.16865466    -0.05700
N1904       N  0.85633224  0.72202915  0.18259692    -0.58300
Mn1905     Mn  0.79904574  0.80049015  0.14219007     1.20200
Mn1906     Mn  0.80027895  0.70402738  0.14137683     1.10100
Cl1907     Cl  0.75107604  0.75172098  0.14151501    -0.86200
C1908       C  0.87231973  0.75204675  0.19116890     0.96100
C1909       C  0.85642370  0.75260623  0.08433201     0.95900
N1910       N  0.97954843  0.57647256  0.66595352    -0.06400
N1911       N  0.96497173  0.59999918  0.68057230    -0.58500
N1912       N  0.52007661  0.57403830  0.61316160    -0.06100
N1913       N  0.53325791  0.59260379  0.59520485    -0.60600
N1914       N  0.98382323  0.57400130  0.61166192    -0.05700
N1915       N  0.97202529  0.59180513  0.59293156    -0.58500
N1916       N  0.51538752  0.57579541  0.66802486    -0.05300
N1917       N  0.52536346  0.59995285  0.68401228    -0.61000
C1918       C  0.99343565  0.61515379  0.69169923     0.95800
C1919       C  0.50362998  0.60302862  0.58278069     0.95600
N1920       N  0.58071362  0.97936962  0.61529435    -0.06600
N1921       N  0.60086526  0.96697096  0.59782358    -0.59100
N1922       N  0.57764922  0.51474677  0.66980361    -0.04700
N1923       N  0.60272872  0.52697301  0.68437013    -0.60300
N1924       N  0.57932642  0.97993873  0.66966394    -0.06600
N1925       N  0.60493302  0.96756962  0.68387260    -0.59300
N1926       N  0.57987935  0.51528399  0.61567193    -0.04300
N1927       N  0.60007953  0.52832571  0.59859550    -0.60400
Mn1928     Mn  0.54894012  0.54574396  0.64200695     1.18400
C1929       C  0.61301715  0.49879581  0.58752339     0.97900
C1930       C  0.61849042  0.49695163  0.69331298     0.98500
N1931       N  0.92599576  0.51405332  0.60997105    -0.06600
N1932       N  0.90926009  0.52572542  0.59073070    -0.62900
N1933       N  0.92165616  0.98084127  0.66457350    -0.05400
N1934       N  0.89578815  0.96933679  0.67862400    -0.63600
N1935       N  0.92003234  0.51581861  0.66422878    -0.06100
N1936       N  0.89447640  0.52907723  0.67781851    -0.63200
N1937       N  0.92753481  0.97947856  0.61038508    -0.05000
N1938       N  0.91050914  0.96648306  0.59169603    -0.63900
Mn1939     Mn  0.95176095  0.54570843  0.63808037     1.10700
C1940       C  0.89920228  0.49520603  0.57946527     0.99100
C1941       C  0.87819063  0.49970544  0.68684069     0.99200
N1942       N  0.51803764  0.91948881  0.66869588    -0.06100
N1943       N  0.52970178  0.89508579  0.68399381    -0.61500
N1944       N  0.98618224  0.92064025  0.61279218    -0.05500
N1945       N  0.97476477  0.90243898  0.59412231    -0.58200
N1946       N  0.52104666  0.92019332  0.61428481    -0.06800
N1947       N  0.53452330  0.90163003  0.59650573    -0.61100
N1948       N  0.98312328  0.91971741  0.66728257    -0.05700
N1949       N  0.97009520  0.89520114  0.68186251    -0.58300
Mn1950     Mn  0.55035866  0.94903894  0.64220181     1.20200
Mn1951     Mn  0.95388972  0.94942895  0.63906382     1.10100
Cl1952     Cl  0.00055148  0.49791339  0.64064853    -0.86200
C1953       C  0.99974953  0.88043471  0.69201393     0.96100
C1954       C  0.50523769  0.89009849  0.58437083     0.95900
N1955       N  0.98067105  0.92010355  0.33257032    -0.06400
N1956       N  0.96775953  0.89701487  0.31689063    -0.58500
N1957       N  0.51391446  0.92034990  0.38795038    -0.06100
N1958       N  0.52504350  0.90139149  0.40641868    -0.60600
N1959       N  0.98044174  0.92228773  0.38701800    -0.05700
N1960       N  0.96740137  0.90378936  0.40496568    -0.58500
N1961       N  0.51525050  0.91839702  0.33322046    -0.05300
N1962       N  0.52710584  0.89492711  0.31749069    -0.61000
C1963       C  0.99749259  0.88245731  0.30694901     0.95800
C1964       C  0.49419855  0.89108255  0.41707856     0.95600
N1965       N  0.57606821  0.51393620  0.38775130    -0.06600
N1966       N  0.59469737  0.52630894  0.40600213    -0.59100
N1967       N  0.57890795  0.97623631  0.33420370    -0.04700
N1968       N  0.60320493  0.96299945  0.31952280    -0.60300
N1969       N  0.57892985  0.51317652  0.33323612    -0.06600
N1970       N  0.60346556  0.52494587  0.31829143    -0.59300
N1971       N  0.57532998  0.97735346  0.38866406    -0.04300
N1972       N  0.59351880  0.96456332  0.40702228    -0.60400
Mn1973     Mn  0.54656209  0.94721847  0.36082513     1.18400
C1974       C  0.60534536  0.99435732  0.41843621     0.97900
C1975       C  0.61759471  0.49450880  0.30904662     0.98500
N1976       N  0.92309250  0.98379309  0.38646215    -0.06600
N1977       N  0.90533650  0.97264226  0.40529020    -0.62900
N1978       N  0.92106978  0.51754660  0.33124115    -0.05400
N1979       N  0.89680535  0.53013115  0.31608879    -0.63600
N1980       N  0.92114149  0.98212170  0.33166437    -0.06100
N1981       N  0.89635355  0.96997933  0.31679644    -0.63200
N1982       N  0.92193179  0.51883774  0.38573469    -0.05000
N1983       N  0.90449231  0.53238561  0.40399050    -0.63900
Mn1984     Mn  0.95056692  0.95133917  0.35927218     1.10700
C1985       C  0.89503409  0.00348090  0.41611559     0.99100
C1986       C  0.88158847  0.50022509  0.30672326     0.99200
N1987       N  0.51963958  0.57441768  0.33195091    -0.06100
N1988       N  0.53358698  0.59746216  0.31682835    -0.61500
N1989       N  0.98241228  0.57603553  0.38605838    -0.05500
N1990       N  0.96986293  0.59528300  0.40388081    -0.58200
N1991       N  0.51784738  0.57481817  0.38646479    -0.06800
N1992       N  0.52997807  0.59338280  0.40479557    -0.61100
N1993       N  0.98467567  0.57610769  0.33153037    -0.05700
N1994       N  0.97420345  0.60071844  0.31600866    -0.58300
Mn1995     Mn  0.54877803  0.54476908  0.35974269     1.20200
Mn1996     Mn  0.95177199  0.54793001  0.35832681     1.10100
Cl1997     Cl  0.00028479  0.99822981  0.35884971    -0.86200
C1998       C  0.00544003  0.61344600  0.30713252     0.96100
C1999       C  0.49975123  0.60570663  0.41543081     0.95900
C2000       C  0.50327730  0.77994886  0.51302335     0.02000
C2001       C  0.50030128  0.78064292  0.48808383     0.02000
C2002       C  0.49958369  0.74802514  0.47560203    -0.18500
C2003       C  0.50106652  0.71492645  0.48743447     0.02000
C2004       C  0.50294696  0.71432739  0.51234468     0.02000
C2005       C  0.50453390  0.74682734  0.52483633    -0.18500
H2006       H  0.50608231  0.74633119  0.54406480     0.04000
H2007       H  0.49784886  0.74838874  0.45638007     0.04000
C2008       C  0.78475650  0.49755153  0.51157951     0.02000
C2009       C  0.78314936  0.50198590  0.48680528     0.02000
C2010       C  0.74952683  0.50165034  0.47544196    -0.18500
C2011       C  0.71750563  0.49842550  0.48826700     0.02000
C2012       C  0.71905391  0.49718565  0.51328156     0.02000
C2013       C  0.75276100  0.49625251  0.52453778    -0.18500
H2014       H  0.75413427  0.49449453  0.54374173     0.04000
H2015       H  0.74825881  0.50330304  0.45623375     0.04000
C2016       C  0.50299708  0.74718199  0.25188245    -0.02800
C2017       C  0.99682747  0.85109263  0.29065254    -0.00400
C2018       C  0.46910224  0.82468395  0.29356840    -0.12300
C2019       C  0.47018257  0.79209553  0.28103514     0.01800
C2020       C  0.99989396  0.78437657  0.26527257    -0.00500
C2021       C  0.02401388  0.81309337  0.26059101    -0.12200
C2022       C  0.02364266  0.84514909  0.27365509     0.01700
H2023       H  0.44777124  0.82924520  0.30628046     0.14700
H2024       H  0.04361188  0.81128691  0.24661431     0.14700
C2025       C  0.05062566  0.87196895  0.26873022     0.36300
C2026       C  0.44147161  0.76730261  0.28609182     0.36200
N2027       N  0.07227883  0.89340128  0.26474592    -0.44000
N2028       N  0.41769077  0.74898045  0.29130389    -0.44000
C2029       C  0.00747814  0.71326365  0.26807609    -0.00400
C2030       C  0.01056965  0.67954683  0.25624711    -0.12300
C2031       C  0.01016088  0.64679233  0.26852514     0.01800
C2032       C  0.00793165  0.64683293  0.29329123    -0.00500
C2033       C  0.50832156  0.67872877  0.30507084    -0.12200
C2034       C  0.50954828  0.71182831  0.29322533     0.01700
H2035       H  0.01053163  0.67865148  0.23703783     0.14700
H2036       H  0.50872828  0.67811085  0.32433133     0.14700
C2037       C  0.51546022  0.74260042  0.30829863     0.36300
C2038       C  0.00999760  0.61351219  0.25532424     0.36200
N2039       N  0.52068847  0.76640496  0.32109585    -0.44000
N2040       N  0.00966228  0.58677205  0.24481999    -0.44000
C2041       C  0.49979009  0.62990261  0.43642156    -0.00400
C2042       C  0.53235442  0.64627766  0.44307172    -0.12300
C2043       C  0.53363098  0.67175005  0.46125785     0.01800
C2044       C  0.50181715  0.68201546  0.47281763    -0.00500
C2045       C  0.97069940  0.66560844  0.46740142    -0.12200
C2046       C  0.96881058  0.63930187  0.44958926     0.01700
H2047       H  0.55679714  0.64021563  0.43349158     0.14700
H2048       H  0.94637135  0.67421269  0.47632156     0.14700
C2049       C  0.93429350  0.62303435  0.44477231     0.36300
C2050       C  0.56773417  0.68790734  0.46737880     0.36200
N2051       N  0.90653602  0.61006814  0.44109019    -0.44000
N2052       N  0.59502626  0.70073147  0.47251317    -0.44000
C2053       C  0.49299687  0.86687069  0.43799079    -0.00400
C2054       C  0.52408447  0.86323833  0.45215377    -0.12300
C2055       C  0.52630591  0.83709321  0.47000290     0.01800
C2056       C  0.49681119  0.81421967  0.47409304    -0.00500
C2057       C  0.96808158  0.82162446  0.46196293    -0.12200
C2058       C  0.96561758  0.84739418  0.44396086     0.01700
H2059       H  0.54736558  0.87987788  0.44862745     0.14700
H2060       H  0.94471867  0.80548104  0.46622538     0.14700
C2061       C  0.93148994  0.85112428  0.43178978     0.36300
C2062       C  0.56006477  0.83268354  0.48247201     0.36200
N2063       N  0.90403227  0.85395153  0.42213694    -0.44000
N2064       N  0.58741518  0.82967601  0.49222513    -0.44000
C2065       C  0.63024364  0.99341170  0.43915294    -0.00400
C2066       C  0.65189644  0.96274665  0.44233150    -0.12300
C2067       C  0.67929685  0.96209202  0.45942257     0.01800
C2068       C  0.68386927  0.49528135  0.47429624    -0.00500
C2069       C  0.66213363  0.52572693  0.47104690    -0.12200
C2070       C  0.63568490  0.52651408  0.45315707     0.01700
H2071       H  0.64884418  0.93989536  0.43054185     0.14700
H2072       H  0.66731936  0.54964437  0.48153491     0.14700
C2073       C  0.61535600  0.55929715  0.45003113     0.36300
C2074       C  0.70293920  0.93118281  0.46039952     0.36200
N2075       N  0.59932295  0.58577885  0.44762188    -0.44000
N2076       N  0.72206245  0.90657017  0.46113199    -0.44000
C2077       C  0.87111272  0.00509776  0.43701512    -0.00400
C2078       C  0.84686021  0.53465733  0.43949185    -0.12300
C2079       C  0.82014639  0.53526466  0.45679350     0.01800
C2080       C  0.81562286  0.50536247  0.47188271    -0.00500
C2081       C  0.84218450  0.97693712  0.47090649    -0.12200
C2082       C  0.86965806  0.97718121  0.45400240     0.01700
H2083       H  0.84885336  0.55705375  0.42724633     0.14700
H2084       H  0.83995423  0.95436644  0.48298720     0.14700
C2085       C  0.89656789  0.94916316  0.45500446     0.36300
C2086       C  0.79707320  0.56650624  0.45835047     0.36200
N2087       N  0.91847278  0.92705082  0.45625182    -0.44000
N2088       N  0.77860017  0.59154421  0.45959413    -0.44000
C2089       C  0.68708923  0.49883042  0.52881684    -0.00400
C2090       C  0.68291630  0.52975695  0.54278420    -0.12300
C2091       C  0.65938564  0.53031081  0.56203604     0.01800
C2092       C  0.63799208  0.49983636  0.56703774    -0.00500
C2093       C  0.64285408  0.96596445  0.55290096    -0.12200
C2094       C  0.66782051  0.96464619  0.53427486     0.01700
H2095       H  0.70007457  0.55280414  0.53959538     0.14700
H2096       H  0.62756052  0.94205629  0.55715952     0.14700
C2097       C  0.67380036  0.93088953  0.52229066     0.36300
C2098       C  0.66048733  0.56128690  0.57748613     0.36200
N2099       N  0.67858590  0.90362623  0.51290971    -0.44000
N2100       N  0.66167025  0.58603519  0.58992044    -0.44000
C2101       C  0.87535222  0.49414717  0.55838228    -0.00400
C2102       C  0.85712272  0.96329731  0.55395214    -0.12300
C2103       C  0.82920235  0.96263683  0.53731412     0.01800
C2104       C  0.81895987  0.49433037  0.52488697    -0.00500
C2105       C  0.84160268  0.52423211  0.52692181    -0.12200
C2106       C  0.86998568  0.52425851  0.54339886     0.01700
H2107       H  0.86257672  0.93930877  0.56433417     0.14700
H2108       H  0.83609488  0.54809928  0.51641776     0.14700
C2109       C  0.89295867  0.55544486  0.54454862     0.36300
C2110       C  0.80931607  0.92967220  0.53398239     0.36200
N2111       N  0.91153391  0.58034303  0.54526609    -0.44000
N2112       N  0.79331634  0.90333421  0.53122640    -0.44000
C2113       C  0.50347579  0.62742266  0.56190270    -0.00400
C2114       C  0.97019824  0.64685532  0.55629148    -0.12300
C2115       C  0.96936984  0.67357271  0.53888145     0.01800
C2116       C  0.50151801  0.68081016  0.52632081    -0.00500
C2117       C  0.53326750  0.66144680  0.53070538    -0.12200
C2118       C  0.53444320  0.63464934  0.54823287     0.01700
H2119       H  0.94609869  0.64194027  0.56650721     0.14700
H2120       H  0.55750780  0.66833574  0.52113339     0.14700
C2121       C  0.56769560  0.61523428  0.55168197     0.36300
C2122       C  0.93625951  0.69311704  0.53474553     0.36200
N2123       N  0.59443794  0.59963262  0.55411629    -0.44000
N2124       N  0.90976897  0.70879905  0.53135541    -0.44000
C2125       C  0.50432209  0.81273982  0.52772759    -0.00400
C2126       C  0.53690372  0.82189234  0.53871165    -0.12300
C2127       C  0.53845006  0.84883048  0.55594209     0.01800
C2128       C  0.50631581  0.86582092  0.56347308    -0.00500
C2129       C  0.97331871  0.85642406  0.55220595    -0.12200
C2130       C  0.97233121  0.82999200  0.53452746     0.01700
H2131       H  0.56112764  0.80707029  0.53428428     0.14700
H2132       H  0.94815250  0.86736956  0.55867511     0.14700
C2133       C  0.93793251  0.81803501  0.52549709     0.36300
C2134       C  0.57333745  0.85743186  0.56582490     0.36200
N2135       N  0.91045987  0.80833240  0.51817744    -0.44000
N2136       N  0.60141679  0.86440177  0.57352532    -0.44000
C2137       C  0.60016817  0.74592442  0.20631841    -0.00400
C2138       C  0.60347451  0.75194413  0.23062054    -0.12300
C2139       C  0.57339834  0.75066915  0.24551971     0.01800
C2140       C  0.53784908  0.74612838  0.23590484    -0.00500
C2141       C  0.53573238  0.73754039  0.21137812    -0.12200
C2142       C  0.56622442  0.73729479  0.19682407     0.01700
H2143       H  0.62994627  0.75715278  0.23809463     0.14700
H2144       H  0.51046562  0.72985934  0.20327373     0.14700
C2145       C  0.56209054  0.72784329  0.17210206     0.36300
C2146       C  0.58070375  0.75551459  0.27047453     0.36200
N2147       N  0.55896352  0.72003709  0.15232408    -0.44000
N2148       N  0.58856293  0.75987894  0.29015723    -0.44000
C2149       C  0.96794289  0.74591577  0.23612321    -0.00400
C2150       C  0.96326263  0.77421143  0.21945640    -0.12300
C2151       C  0.93267596  0.77715738  0.20485918     0.01800
C2152       C  0.90511521  0.75136082  0.20636542    -0.00500
C2153       C  0.90887635  0.72337897  0.22266216    -0.12200
C2154       C  0.93872600  0.72072346  0.23788938     0.01700
H2155       H  0.98414672  0.79432063  0.21769893     0.14700
H2156       H  0.88723798  0.70396231  0.22420266     0.14700
C2157       C  0.93488159  0.69364262  0.25603389     0.36300
C2158       C  0.93113171  0.80627057  0.18792455     0.36200
N2159       N  0.92988100  0.67196534  0.27037866    -0.44000
N2160       N  0.93015799  0.82966078  0.17438003    -0.44000
C2161       C  0.75621802  0.62525107  0.06121801    -0.00400
C2162       C  0.78654040  0.60305280  0.05868107    -0.12300
C2163       C  0.78719014  0.57584851  0.04166785     0.01800
C2164       C  0.75721011  0.57067509  0.02656043    -0.00500
C2165       C  0.72828608  0.59495925  0.02751647    -0.12200
C2166       C  0.72764613  0.62232119  0.04463788     0.01700
H2167       H  0.80905331  0.60548685  0.07091819     0.14700
H2168       H  0.70535772  0.59136276  0.01575780     0.14700
C2169       C  0.69748286  0.64687178  0.04477480     0.36300
C2170       C  0.81817323  0.55228876  0.04091143     0.36200
N2171       N  0.67343332  0.66672138  0.04468519    -0.44000
N2172       N  0.84289806  0.53330823  0.04035681    -0.44000
C2173       C  0.75432380  0.93892124  0.02941369    -0.00400
C2174       C  0.78549055  0.93263107  0.04290224    -0.12300
C2175       C  0.78523693  0.90896780  0.06211870     0.01800
C2176       C  0.75364710  0.88930916  0.06735269    -0.00500
C2177       C  0.72268283  0.89506839  0.05341027    -0.12200
C2178       C  0.72256037  0.92018266  0.03488748     0.01700
H2179       H  0.80943556  0.94838326  0.03943755     0.14700
H2180       H  0.69811340  0.88090165  0.05752123     0.14700
C2181       C  0.68883601  0.92859809  0.02327174     0.36300
C2182       C  0.81673924  0.90837747  0.07728674     0.36200
N2183       N  0.66164093  0.93556763  0.01423234    -0.44000
N2184       N  0.84196801  0.90836515  0.08945071    -0.44000
C2185       C  0.74686756  0.56846587  0.97322118    -0.00400
C2186       C  0.71421558  0.57545423  0.96153202    -0.12300
C2187       C  0.71169478  0.60195004  0.94401380     0.01800
C2188       C  0.74240108  0.62254083  0.93819496    -0.00500
C2189       C  0.77470079  0.61644987  0.95075992    -0.12200
C2190       C  0.77724960  0.58942435  0.96797121     0.01700
H2191       H  0.69099253  0.55885990  0.96535724     0.14700
H2192       H  0.79850553  0.63190434  0.94651413     0.14700
C2193       C  0.81188364  0.58201893  0.97867428     0.36300
C2194       C  0.67793526  0.60527490  0.93134214     0.36200
N2195       N  0.83981135  0.57611051  0.98703174    -0.44000
N2196       N  0.65082192  0.60770580  0.92122544    -0.44000
C2197       C  0.74750542  0.93606045  0.97551963    -0.00400
C2198       C  0.71463402  0.92771085  0.96461362    -0.12300
C2199       C  0.71252284  0.90171093  0.94674441     0.01800
C2200       C  0.74430835  0.88438965  0.93878609    -0.00500
C2201       C  0.77676832  0.89104743  0.95097961    -0.12200
C2202       C  0.77855141  0.91652273  0.96927782     0.01700
H2203       H  0.69077426  0.94296779  0.96925494     0.14700
H2204       H  0.80116848  0.87737147  0.94562151     0.14700
C2205       C  0.81295958  0.92388967  0.98024331     0.36300
C2206       C  0.67750734  0.89493763  0.93642753     0.36200
N2207       N  0.84058400  0.92963949  0.98902846    -0.44000
N2208       N  0.64925948  0.88962564  0.92840900    -0.44000
C2209       C  0.99327543  0.70990815  0.73679562    -0.00400
C2210       C  0.96479469  0.70367062  0.72052939    -0.12300
C2211       C  0.96340219  0.67266895  0.70631666     0.01800
C2212       C  0.99073211  0.64628173  0.70824542    -0.00500
C2213       C  0.51648244  0.64888669  0.72646374    -0.12200
C2214       C  0.51646709  0.67882703  0.74162748     0.01700
H2215       H  0.94469787  0.72437147  0.71767132     0.14700
H2216       H  0.53551737  0.62716153  0.72958215     0.14700
C2217       C  0.53707515  0.67459813  0.76327560     0.36300
C2218       C  0.93493426  0.67014385  0.68883928     0.36200
N2219       N  0.55349231  0.67031719  0.78058415    -0.44000
N2220       N  0.91203704  0.66820157  0.67487942    -0.44000
C2221       C  0.99728130  0.78115865  0.73257646    -0.00400
C2222       C  0.49599975  0.81474052  0.74419608    -0.12300
C2223       C  0.49584661  0.84732780  0.73168340     0.01800
C2224       C  0.99914971  0.84715181  0.70633840    -0.00500
C2225       C  0.00345587  0.81415111  0.69488814    -0.12200
C2226       C  0.00271255  0.78142387  0.70736266     0.01700
H2227       H  0.49313834  0.81585979  0.76329810     0.14700
H2228       H  0.00751619  0.81402095  0.67582933     0.14700
C2229       C  0.00959845  0.75011005  0.69300219     0.36300
C2230       C  0.49196780  0.88063009  0.74458721     0.36200
N2231       N  0.01563328  0.72602954  0.68060747    -0.44000
N2232       N  0.48870546  0.90734035  0.75489929    -0.44000
C2233       C  0.53010332  0.75105249  0.76519744    -0.00400
C2234       C  0.52802839  0.76161943  0.78935312    -0.12300
C2235       C  0.55878802  0.76414027  0.80387271     0.01800
C2236       C  0.59299434  0.75683139  0.79450572    -0.00500
C2237       C  0.59608504  0.74936719  0.77041721    -0.12200
C2238       C  0.56563131  0.74745352  0.75564187     0.01700
H2239       H  0.50254759  0.76875419  0.79719356     0.14700
H2240       H  0.62262963  0.74467653  0.76309407     0.14700
C2241       C  0.57270871  0.73906942  0.73114687     0.36300
C2242       C  0.55457193  0.77408116  0.82846448     0.36200
N2243       N  0.58069812  0.73169324  0.71195102    -0.44000
N2244       N  0.55122379  0.78213145  0.84815791    -0.44000
C2245       C  0.95879509  0.74843853  0.76436873    -0.00400
C2246       C  0.95562522  0.72409516  0.78358116    -0.12300
C2247       C  0.92564746  0.72400484  0.79867084     0.01800
C2248       C  0.89676535  0.74804614  0.79467945    -0.00500
C2249       C  0.89798282  0.77031433  0.77472748    -0.12200
C2250       C  0.92726318  0.76954046  0.75902737     0.01700
H2251       H  0.97755342  0.70568183  0.78740123     0.14700
H2252       H  0.87492361  0.78731817  0.77073359     0.14700
C2253       C  0.92120998  0.78769986  0.73668719     0.36300
C2254       C  0.92614205  0.70001513  0.81881015     0.36200
N2255       N  0.91551019  0.80213619  0.71884618    -0.44000
N2256       N  0.92665211  0.68082127  0.83497571    -0.44000
C2257       C  0.84541742  0.50178096  0.70180509    -0.00400
C2258       C  0.83956935  0.53302203  0.71510251    -0.12300
C2259       C  0.80967290  0.53689316  0.72995583     0.01800
C2260       C  0.78475186  0.50788558  0.73268743    -0.00500
C2261       C  0.79125085  0.97836303  0.71660192    -0.12200
C2262       C  0.82120833  0.97500765  0.70179133     0.01700
H2263       H  0.85868232  0.55494593  0.71384432     0.14700
H2264       H  0.77176789  0.95672818  0.71662274     0.14700
C2265       C  0.82355177  0.94382844  0.68660390     0.36300
C2266       C  0.80536646  0.57223881  0.74010267     0.36200
N2267       N  0.82539826  0.91884090  0.67442540    -0.44000
N2268       N  0.80283147  0.60116343  0.74753810    -0.44000
C2269       C  0.71830454  0.50241416  0.73407393    -0.00400
C2270       C  0.70024424  0.96971042  0.73204643    -0.12300
C2271       C  0.66775572  0.96758443  0.71932759     0.01800
C2272       C  0.65262588  0.49743123  0.70726495    -0.00500
C2273       C  0.67364507  0.52858358  0.70666084    -0.12200
C2274       C  0.70637597  0.53101541  0.71899768     0.01700
H2275       H  0.70940286  0.94533214  0.74063146     0.14700
H2276       H  0.66466980  0.55139571  0.69614115     0.14700
C2277       C  0.72553874  0.56441371  0.71630741     0.36300
C2278       C  0.64804274  0.93417490  0.72014759     0.36200
N2279       N  0.73900943  0.59206246  0.71341231    -0.44000
N2280       N  0.63244884  0.90730012  0.72087156    -0.44000
C2281       C  0.74952030  0.53834088  0.76830630    -0.00400
C2282       C  0.71708841  0.55847672  0.77021055    -0.12300
C2283       C  0.71443467  0.58947720  0.78426124     0.01800
C2284       C  0.74396138  0.60054454  0.79821613    -0.00500
C2285       C  0.77444581  0.57831022  0.79904278    -0.12200
C2286       C  0.77713722  0.54720962  0.78505921     0.01700
H2287       H  0.69295120  0.55029743  0.76096769     0.14700
H2288       H  0.79664643  0.58528557  0.81074924     0.14700
C2289       C  0.80972669  0.52650777  0.78804679     0.36300
C2290       C  0.68106057  0.60949683  0.78358330     0.36200
N2291       N  0.83655199  0.51149580  0.79158175    -0.44000
N2292       N  0.65421794  0.62536104  0.78294452    -0.44000
C2293       C  0.75704798  0.97127177  0.76710736    -0.00400
C2294       C  0.72716807  0.96555229  0.78216524    -0.12300
C2295       C  0.72321474  0.93419332  0.79561905     0.01800
C2296       C  0.74997150  0.90728791  0.79498561    -0.00500
C2297       C  0.78118666  0.91378325  0.78198816    -0.12200
C2298       C  0.78571505  0.94538681  0.76879687     0.01700
H2299       H  0.70561016  0.98526344  0.78254062     0.14700
H2300       H  0.80285171  0.89412962  0.78255324     0.14700
C2301       C  0.82152779  0.95030272  0.75960982     0.36300
C2302       C  0.69190239  0.93120710  0.81050209     0.36200
N2303       N  0.85077095  0.95326011  0.75293840    -0.44000
N2304       N  0.66688384  0.92904401  0.82252448    -0.44000
C2305       C  0.56405943  0.75029371  0.02750945    -0.00400
C2306       C  0.58152413  0.78257036  0.03292146    -0.12300
C2307       C  0.60803536  0.78389834  0.05067624     0.01800
C2308       C  0.61780965  0.75216700  0.06314895    -0.00500
C2309       C  0.60157448  0.71950237  0.05658242    -0.12200
C2310       C  0.57476311  0.71840103  0.03909131     0.01700
H2311       H  0.57294713  0.80718235  0.02417477     0.14700
H2312       H  0.60867214  0.69486075  0.06580332     0.14700
C2313       C  0.55765767  0.68445658  0.03385940     0.36300
C2314       C  0.62336090  0.81852294  0.05619243     0.36200
N2315       N  0.54392146  0.65728148  0.02966465    -0.44000
N2316       N  0.63518589  0.84649557  0.06061529    -0.44000
C2317       C  0.87990800  0.75138804  0.06316153    -0.00400
C2318       C  0.89759562  0.71882506  0.05803402    -0.12300
C2319       C  0.92383156  0.71696585  0.04046960     0.01800
C2320       C  0.93242995  0.74793321  0.02733953    -0.00500
C2321       C  0.91289834  0.77972048  0.03102232    -0.12200
C2322       C  0.88673102  0.78171292  0.04874190     0.01700
H2323       H  0.89227003  0.69500085  0.06852180     0.14700
H2324       H  0.91948459  0.80359571  0.02089542     0.14700
C2325       C  0.86781468  0.81527845  0.05172621     0.36300
C2326       C  0.94270017  0.68338762  0.03696928     0.36200
N2327       N  0.85270100  0.84231710  0.05378967    -0.44000
N2328       N  0.95777469  0.65642446  0.03429711    -0.44000
C2329       C  0.61653017  0.76249533  0.93889746    -0.00400
C2330       C  0.59457152  0.79294143  0.94192196    -0.12300
C2331       C  0.56820505  0.79377881  0.95949089     0.01800
C2332       C  0.56334461  0.76367006  0.97438670    -0.00500
C2333       C  0.58735312  0.73462397  0.97279762    -0.12200
C2334       C  0.61407842  0.73398188  0.95540497     0.01700
H2335       H  0.59678930  0.81552535  0.92984478     0.14700
H2336       H  0.58412395  0.71159233  0.98438657     0.14700
C2337       C  0.63879035  0.70399789  0.95517884     0.36300
C2338       C  0.54553478  0.82529129  0.96134902     0.36200
N2339       N  0.65883737  0.68013280  0.95537052    -0.44000
N2340       N  0.52727114  0.85045490  0.96282684    -0.44000
C2341       C  0.93170678  0.75587525  0.97423176    -0.00400
C2342       C  0.91748212  0.78878955  0.96655346    -0.12300
C2343       C  0.89072040  0.79006585  0.94897246     0.01800
C2344       C  0.87772177  0.75764102  0.93879905    -0.00500
C2345       C  0.89085021  0.72468255  0.94760848    -0.12200
C2346       C  0.91792028  0.72361180  0.96492913     0.01700
H2347       H  0.92862932  0.81361482  0.97350936     0.14700
H2348       H  0.88130855  0.69956163  0.94013791     0.14700
C2349       C  0.93321829  0.68924364  0.97149622     0.36300
C2350       C  0.87873845  0.82513387  0.94115970     0.36200
N2351       N  0.94576671  0.66175447  0.97657854    -0.44000
N2352       N  0.86961131  0.85342005  0.93494245    -0.44000
C2353       C  0.84894269  0.50056555  0.29132017    -0.00400
C2354       C  0.82330925  0.52784631  0.29432663    -0.12300
C2355       C  0.79084115  0.52815142  0.28143632     0.01800
C2356       C  0.78284293  0.50050515  0.26458875    -0.00500
C2357       C  0.81082660  0.97431663  0.26128119    -0.12200
C2358       C  0.84278217  0.97381229  0.27462088     0.01700
H2359       H  0.82826108  0.54878092  0.30733944     0.14700
H2360       H  0.80884835  0.95466063  0.24726616     0.14700
C2361       C  0.86929411  0.94642032  0.26948278     0.36300
C2362       C  0.76606470  0.55707809  0.28658292     0.36200
N2363       N  0.89046633  0.92446184  0.26529445    -0.44000
N2364       N  0.74651060  0.58031126  0.29116938    -0.44000
C2365       C  0.65001489  0.49397406  0.29408409    -0.00400
C2366       C  0.64645705  0.49882162  0.26968717    -0.12300
C2367       C  0.67672586  0.49999258  0.25497099     0.01800
C2368       C  0.71242597  0.49853948  0.26480760    -0.00500
C2369       C  0.71562364  0.98926456  0.28983154    -0.12200
C2370       C  0.68528982  0.98685864  0.30440375     0.01700
H2371       H  0.61970170  0.50158657  0.26203782     0.14700
H2372       H  0.74142140  0.98379751  0.29803142     0.14700
C2373       C  0.69034399  0.97954135  0.32937038     0.36300
C2374       C  0.66924971  0.50373060  0.22994627     0.36200
N2375       N  0.69433513  0.97371145  0.34938411    -0.44000
N2376       N  0.66112913  0.50700694  0.21020965    -0.44000
C2377       C  0.74954475  0.53780713  0.23507467    -0.00400
C2378       C  0.72330951  0.56524927  0.23800443    -0.12300
C2379       C  0.72385400  0.59719552  0.22486803     0.01800
C2380       C  0.75223345  0.60397442  0.20914902    -0.00500
C2381       C  0.78051869  0.57910481  0.20786512    -0.12200
C2382       C  0.77959458  0.54651778  0.22040320     0.01700
H2383       H  0.70206615  0.56265928  0.25081056     0.14700
H2384       H  0.80277971  0.58427142  0.19600364     0.14700
C2385       C  0.80884548  0.52172739  0.21606056     0.36300
C2386       C  0.69521076  0.62298975  0.22837412     0.36200
N2387       N  0.83240116  0.50231677  0.21193246    -0.44000
N2388       N  0.67220226  0.64357382  0.23119201    -0.44000
C2389       C  0.74522060  0.96669343  0.23315933    -0.00400
C2390       C  0.74551913  0.93289490  0.24500502    -0.12300
C2391       C  0.74721058  0.90025534  0.23274814     0.01000
C2392       C  0.74661549  0.90025409  0.20795108    -0.00500
C2393       C  0.74304955  0.93276549  0.19577918    -0.12200
C2394       C  0.74174481  0.96573722  0.20780575     0.01700
H2395       H  0.74658178  0.93206072  0.26421618     0.14700
H2396       H  0.74093971  0.93228392  0.17655640     0.14700
C2397       C  0.73454745  0.99656422  0.19293519     0.36300
C2398       C  0.75024258  0.86711821  0.24597873     0.36200
N2399       N  0.72839990  0.02044775  0.18033584    -0.44000
N2400       N  0.75283909  0.84055205  0.25656439    -0.44000
loop_ 
_geom_bond_atom_site_label_1 
_geom_bond_atom_site_label_2 
_geom_bond_distance 
_geom_bond_site_symmetry_2 
_ccdc_geom_bond_type 
C1          C589   1.571       .  S
C1         C1156   1.581       .  S
C1         C1168   1.578       .  S
C1         C1177   1.571       .  S
C2            C3   1.406   1_554  A
C2         C1207   1.398       .  A
C2          C520   1.477       .  S
C3         C1204   1.399       .  A
C3          C541   1.474       .  S
C4            C5   1.402   1_655  A
C4         C1203   1.398       .  A
C4            H9   1.085       .  S
C5            C6   1.411   1_556  A
C5          C532   1.483       .  S
C6            C7   1.400   1_455  A
C6          C505   1.475       .  S
C7         C1202   1.398       .  A
C7            H8   1.085       .  S
C10         C460   1.572       .  S
C10         C469   1.584       .  S
C10         C481   1.577       .  S
C10        C1093   1.577   1_545  S
C11         C433   1.575   1_655  S
C11        C1609   1.572       .  S
C11        C1621   1.574       .  S
C11        C1645   1.586       .  S
C12          C13   1.408   1_556  A
C12         C617   1.401       .  A
C12         C397   1.476       .  S
C13         C614   1.398       .  A
C13         C373   1.477       .  S
C14          C15   1.400       .  A
C14         C613   1.399   1_545  A
C14          H19   1.085       .  S
C15          C16   1.410   1_554  A
C15         C364   1.482       .  S
C16          C17   1.403       .  A
C16         C385   1.479       .  S
C17         C612   1.402   1_545  A
C17          H18   1.085       .  S
N20          N21   1.316       .  A
N20          N26   1.313       .  A
N20         Mn49   2.180       .  S
N21          C28   1.350       .  A
N22          N24   1.318       .  A
N22          N23   1.319       .  A
N22         Mn38   2.203       .  S
N23          C29   1.352       .  A
N24          N25   1.321       .  A
N24         Mn49   2.206       .  S
N25          C29   1.353       .  A
N26          N27   1.323       .  A
N26         Mn38   2.210       .  S
N27          C28   1.357       .  A
C28         C400   1.487       .  S
C29         C496   1.484       .  S
N30          N36   1.319       .  A
N30          N31   1.322       .  A
N30         Mn60   2.215       .  S
N31          C39   1.353       .  A
N32          N33   1.318       .  A
N32          N34   1.312       .  A
N32         Mn38   2.183       .  S
N33          C40   1.351       .  A
N34          N35   1.320       .  A
N34         Mn60   2.201       .  S
N35          C40   1.356       .  A
N36          N37   1.325       .  A
N36         Mn38   2.232       .  S
N37          C39   1.357       .  A
Mn38        Cl62   2.547       .  S
C39         C448   1.494       .  S
C40         C544   1.486       .  S
N41          N42   1.321       .  A
N41          N47   1.319       .  A
N41         Mn49   2.202       .  S
N42          C50   1.351       .  A
N43          N45   1.313       .  A
N43          N44   1.321       .  A
N43         Mn61   2.202       .  S
N44          C51   1.354       .  A
N45          N46   1.320       .  A
N45         Mn49   2.192       .  S
N46          C51   1.353       .  A
N47          N48   1.322       .  A
N47         Mn61   2.220       .  S
N48          C50   1.353       .  A
Mn49        Cl62   2.549       .  S
C50         C436   1.476       .  S
C51         C529   1.483       .  S
N52          N53   1.320       .  A
N52          N58   1.314       .  A
N52         Mn60   2.195       .  S
N53          C63   1.354       .  A
N54          N55   1.323       .  A
N54          N56   1.319       .  A
N54         Mn61   2.216       .  S
N55          C64   1.355       .  A
N56          N57   1.320       .  A
N56         Mn60   2.212       .  S
N57          C64   1.353       .  A
N58          N59   1.318       .  A
N58         Mn61   2.192       .  S
N59          C63   1.352       .  A
Mn60        Cl62   2.547       .  S
Mn61        Cl62   2.547       .  S
C63         C388   1.483       .  S
C64         C484   1.491       .  S
N65          N66   1.320       .  A
N65          N71   1.317       .  A
N65         Mn94   2.197       .  S
N66          C73   1.350       .  A
N67          N69   1.314       .  A
N67          N68   1.319       .  A
N67         Mn83   2.192       .  S
N68          C74   1.353       .  A
N69          N70   1.319       .  A
N69         Mn94   2.199       .  S
N70          C74   1.355       .  A
N71          N72   1.323       .  A
N71         Mn83   2.222       .  S
N72          C73   1.354       .  A
C73         C337   1.476       .  S
C74         C508   1.485       .  S
N75          N81   1.314       .  A
N75          N76   1.315       .  A
N75        Mn105   2.178       .  S
N76          C84   1.348       .  A
N77          N78   1.319       .  A
N77          N79   1.319       .  A
N77         Mn83   2.198       .  S
N78          C85   1.349       .  A
N79          N80   1.321       .  A
N79        Mn105   2.215       .  S
N80          C85   1.353       .  A
N81          N82   1.324       .  A
N81         Mn83   2.214       .  S
N82          C84   1.358       .  A
Mn83       Cl107   2.545       .  S
C84         C376   1.485       .  S
C85         C592   1.468       .  S
N86          N87   1.321       .  A
N86          N92   1.313       .  A
N86         Mn94   2.196       .  S
N87          C95   1.354       .  A
N88          N90   1.317       .  A
N88          N89   1.321       .  A
N88        Mn106   2.204       .  S
N89          C96   1.354       .  A
N90          N91   1.321       .  A
N90         Mn94   2.214       .  S
N91          C96   1.354       .  A
N92          N93   1.319       .  A
N92        Mn106   2.193       .  S
N93          C95   1.353       .  A
Mn94       Cl107   2.547       .  S
C95         C361   1.483       .  S
C96         C580   1.484       .  S
N97          N98   1.322       .  A
N97         N103   1.317       .  A
N97        Mn105   2.201       .  S
N98         C108   1.352       .  A
N99         N100   1.316       .  A
N99         N101   1.314       .  A
N99        Mn106   2.187       .  S
N100        C109   1.351       .  A
N101        N102   1.322       .  A
N101       Mn105   2.206       .  S
N102        C109   1.356       .  A
N103        N104   1.320       .  A
N103       Mn106   2.208       .  S
N104        C108   1.353       .  A
Mn105      Cl107   2.548       .  S
Mn106      Cl107   2.541       .  S
C108        C352   1.483       .  S
C109        C517   1.485       .  S
N110        N111   1.318       .  A
N110       N1316   1.317       .  A
N110       Mn139   2.192       .  S
N111        C118   1.349       .  A
N112        N113   1.323       .  A
N112       N1314   1.313   1_455  A
N112       Mn128   2.207       .  S
N113        C119   1.356       .  A
N114        N115   1.317       .  A
N114       N1312   1.313       .  A
N114       Mn139   2.187       .  S
N115       C1319   1.352       .  A
N116        N117   1.325       .  A
N116       N1310   1.317   1_455  A
N116       Mn128   2.232       .  S
N117       C1318   1.359   1_455  A
C118        C412   1.490       .  S
C118       N1317   1.360       .  A
C119        C313   1.487       .  S
C119       N1315   1.352   1_455  A
N120        N121   1.323       .  A
N120        N726   1.315       .  A
N120       Mn150   2.209       .  S
N121        C729   1.356       .  A
N122        N123   1.321       .  A
N122        N724   1.319   1_545  A
N122       Mn128   2.214       .  S
N123        C130   1.355   1_545  A
N124        N125   1.320       .  A
N124        N722   1.318       .  A
N124       Mn150   2.201       .  S
N125        C730   1.352       .  A
N126        N127   1.318       .  A
N126        N720   1.315   1_545  A
N126       Mn128   2.200       .  S
N127        C129   1.352   1_545  A
Mn128     Cl1352   2.550   1_545  S
C129        C292   1.488       .  S
C129        N721   1.355       .  A
C130        C472   1.491       .  S
C130        N725   1.353       .  A
N131        N132   1.319       .  A
N131        N737   1.313   1_545  A
N131       Mn139   2.187       .  S
N132        C140   1.352   1_545  A
N133        N134   1.322       .  A
N133        N735   1.317       .  A
N133       Mn151   2.211       .  S
N134        C741   1.356       .  A
N135        N136   1.320       .  A
N135        N733   1.317   1_545  A
N135       Mn139   2.201       .  S
N136        C141   1.352       .  A
N137        N138   1.318       .  A
N137        N731   1.313       .  A
N137       Mn151   2.186       .  S
N138        C740   1.352       .  A
Mn139      Cl152   2.539   1_545  S
C140        C301   1.481       .  S
C140        N738   1.354       .  A
C141        C457   1.489       .  S
C141        N734   1.356   1_545  A
N142        N143   1.321       .  A
N142       N1348   1.319   1_455  A
N142       Mn150   2.215       .  S
N143       C1353   1.352   1_455  A
N144        N145   1.319       .  A
N144       N1346   1.313       .  A
N144       Mn151   2.190       .  S
N145       C1354   1.353       .  A
N146        N147   1.318       .  A
N146       N1344   1.313   1_455  A
N146       Mn150   2.189       .  S
N147        C154   1.352       .  A
N148        N149   1.322       .  A
N148       N1342   1.318       .  A
N148       Mn151   2.211       .  S
N149        C153   1.353       .  A
Mn150     Cl1952   2.540       .  S
Mn151      Cl752   2.551       .  S
Cl152     Mn1328   2.552   1_565  S
Cl152     Mn1950   2.543       .  S
Cl152      Mn751   2.553       .  S
C153        C424   1.476       .  S
C153       N1343   1.352       .  A
C154        C328   1.485       .  S
C154       N1345   1.354   1_455  A
N155        N156   1.321       .  A
N155       N1361   1.318       .  A
N155       Mn184   2.209       .  S
N156        C163   1.353       .  A
N157        N158   1.319       .  A
N157       N1359   1.313   1_455  A
N157       Mn173   2.195       .  S
N158        C164   1.354   1_455  A
N159        N160   1.320       .  A
N159       N1357   1.313       .  A
N159       Mn184   2.194       .  S
N160       C1364   1.353       .  A
N161        N162   1.322       .  A
N161       N1355   1.317   1_455  A
N161       Mn173   2.217       .  S
N162       C1363   1.355   1_455  A
C163        C217   1.485       .  S
C163       N1362   1.355       .  A
C164        C253   1.483       .  S
C164       N1360   1.352       .  A
N165        N166   1.321       .  A
N165        N771   1.314   1_545  A
N165       Mn195   2.199       .  S
N166        C774   1.354   1_545  A
N167        N168   1.322       .  A
N167        N769   1.317       .  A
N167       Mn173   2.205       .  S
N168        C775   1.352       .  A
N169        N170   1.321       .  A
N169        N767   1.317   1_545  A
N169       Mn195   2.211       .  S
N170        C175   1.352   1_545  A
N171        N172   1.320       .  A
N171        N765   1.314       .  A
N171       Mn173   2.203       .  S
N172        C174   1.355       .  A
Mn173     Cl1397   2.549   1_455  S
C174        C265   1.486       .  S
C174        N766   1.353       .  A
C175        C565   1.475       .  S
C175        N768   1.352       .  A
N176        N177   1.321       .  A
N176        N782   1.315       .  A
N176       Mn184   2.204       .  S
N177        C185   1.354       .  A
N178        N179   1.322       .  A
N178        N780   1.317   1_545  A
N178       Mn196   2.208       .  S
N179        C186   1.354   1_545  A
N180        N181   1.321       .  A
N180        N778   1.317       .  A
N180       Mn184   2.212       .  S
N181        C786   1.354       .  A
N182        N183   1.320       .  A
N182        N776   1.314   1_545  A
N182       Mn196   2.196       .  S
N183        C785   1.353       .  A
Mn184      Cl197   2.544       .  S
C185        C277   1.481       .  S
C185        N783   1.353       .  A
C186        C553   1.486   1_565  S
C186        N781   1.354       .  A
N187        N188   1.320       .  A
N187       N1393   1.318   1_455  A
N187       Mn195   2.201       .  S
N188       C1398   1.350       .  A
N189        N190   1.319       .  A
N189       N1391   1.313       .  A
N189       Mn196   2.190       .  S
N190       C1399   1.352       .  A
N191        N192   1.320       .  A
N191       N1389   1.313   1_455  A
N191       Mn195   2.202       .  S
N192        C199   1.355       .  A
N193        N194   1.321       .  A
N193       N1387   1.318       .  A
N193       Mn196   2.213       .  S
N194        C198   1.353       .  A
Mn195     Cl1997   2.543   1_545  S
Mn196      Cl797   2.551   1_545  S
Cl197     Mn1373   2.549       .  S
Cl197     Mn1995   2.541       .  S
Cl197      Mn796   2.552       .  S
C198        C232   1.470       .  S
C198       N1388   1.350       .  A
C199        C241   1.487       .  S
C199       N1390   1.352   1_455  A
C200        C201   1.408       .  A
C200        C205   1.399       .  A
C200        C325   1.474       .  S
C201        C202   1.402       .  A
C201        C256   1.478   1_455  S
C202        C203   1.400       .  A
C202        H207   1.085       .  S
C203        C204   1.406       .  A
C203        C244   1.476       .  S
C204        C205   1.400       .  A
C204        C316   1.475       .  S
C205        H206   1.085       .  S
C208        C209   1.407   1_565  A
C208        C213   1.401       .  A
C208        C304   1.476       .  S
C209        C210   1.401       .  A
C209        C280   1.482       .  S
C210        C211   1.403   1_545  A
C210        H215   1.085       .  S
C211        C212   1.411       .  A
C211        C268   1.478       .  S
C212        C213   1.401       .  A
C212        C289   1.482       .  S
C213        H214   1.085       .  S
C216        C340   1.582       .  S
C216       C1420   1.577   1_455  S
C216       C1429   1.566       .  S
C216       C1549   1.579   1_455  S
C217        C222   1.404       .  A
C217       C1418   1.399       .  A
C218        C219   1.403       .  A
C218       C1417   1.398       .  A
C218        H223   1.085       .  S
C219       C1420   1.432       .  A
C219        C226   1.442       .  S
C220       C1416   1.579       .  S
C220        C221   1.423       .  A
C220       C1419   1.432       .  A
C221        C222   1.402       .  A
C221        H224   1.079       .  S
C222        C225   1.445       .  S
C225        N227   1.157       .  T
C226        N228   1.157       .  T
C229       C1416   1.566       .  S
C229        C230   1.425       .  A
C229       C1434   1.432       .  A
C230        C231   1.401       .  A
C230        H235   1.083       .  S
C231        C232   1.399       .  A
C231        C238   1.444       .  S
C232       C1433   1.395       .  A
C233        C234   1.402       .  A
C233       C1432   1.396       .  A
C233        H236   1.086       .  S
C234       C1429   1.432       .  A
C234        C237   1.441       .  S
C237        N239   1.158       .  T
C238        N240   1.157       .  T
C241        C242   1.406       .  A
C241       C1446   1.419   1_455  A
C242        C243   1.397       .  A
C242        H247   1.083       .  S
C243        C244   1.406       .  A
C243        C250   1.444       .  S
C244       C1445   1.400   1_455  A
C245        C246   1.402       .  A
C245       C1444   1.400       .  A
C245        H248   1.085       .  S
C246       C1441   1.419       .  A
C246        C249   1.444       .  S
C249        N251   1.158       .  T
C250        N252   1.157       .  T
C253        C254   1.406   1_655  A
C253       C1458   1.416       .  A
C254        C255   1.399       .  A
C254        H259   1.085       .  S
C255        C256   1.408   1_455  A
C255        C262   1.443       .  S
C256       C1457   1.401       .  A
C257        C258   1.399       .  A
C257       C1456   1.400       .  A
C257        H260   1.085       .  S
C258       C1453   1.418       .  A
C258        C261   1.444       .  S
C261        N263   1.158       .  T
C262        N264   1.157       .  T
C265        C266   1.404       .  A
C265        C870   1.418       .  A
C266        C267   1.397       .  A
C266        H271   1.084       .  S
C267        C868   1.410       .  A
C267        C274   1.445       .  S
C268        C269   1.400   1_565  A
C268        C867   1.410       .  A
C269        C270   1.404       .  A
C269        H272   1.085       .  S
C270        C865   1.417   1_545  A
C270        C273   1.442       .  S
C273        N275   1.157       .  T
C274        N276   1.157       .  T
C277        C282   1.413       .  A
C277        C878   1.403       .  A
C278        C279   1.398       .  A
C278        C877   1.404       .  A
C278        H283   1.084       .  S
C279        C280   1.411       .  A
C279        C286   1.444       .  S
C280        C881   1.402   1_545  A
C281        C282   1.402       .  A
C281        C880   1.402       .  A
C281        H284   1.084       .  S
C282        C285   1.441       .  S
C285        N287   1.156       .  T
C286        N288   1.157       .  T
C289        C290   1.401   1_565  A
C289        C894   1.410       .  A
C290        C291   1.397       .  A
C290        H295   1.086       .  S
C291        C292   1.415   1_545  A
C291        C298   1.444       .  S
C292        C893   1.407       .  A
C293        C294   1.405       .  A
C293        C892   1.408       .  A
C293        H296   1.084       .  S
C294        C889   1.409       .  A
C294        C297   1.442       .  S
C297        N299   1.157       .  T
C298        N300   1.157       .  T
C301        C306   1.417   1_565  A
C301        C902   1.404       .  A
C302        C303   1.394       .  A
C302        C901   1.404       .  A
C302        H307   1.084       .  S
C303        C904   1.408       .  A
C303        C310   1.445       .  S
C304        C305   1.400   1_565  A
C304        C903   1.408       .  A
C305        C306   1.401       .  A
C305        H308   1.085       .  S
C306        C309   1.443       .  S
C309        N311   1.157       .  T
C310        N312   1.157       .  T
C313        C318   1.416       .  A
C313       C1514   1.406   1_455  A
C314        C315   1.396       .  A
C314       C1513   1.406       .  A
C314        H319   1.084       .  S
C315       C1516   1.406       .  A
C315        C322   1.444       .  S
C316        C317   1.399       .  A
C316       C1515   1.406   1_455  A
C317        C318   1.402       .  A
C317        H320   1.085       .  S
C318        C321   1.440       .  S
C321        N323   1.156       .  T
C322        N324   1.157       .  T
C325        C326   1.398       .  A
C325       C1530   1.406   1_455  A
C326        C327   1.397       .  A
C326        H331   1.084       .  S
C327        C328   1.417       .  A
C327        C334   1.444       .  S
C328       C1529   1.409   1_455  A
C329        C330   1.399       .  A
C329       C1528   1.409       .  A
C329        H332   1.084       .  S
C330       C1525   1.406       .  A
C330        C333   1.444       .  S
C333        N335   1.157       .  T
C334        N336   1.157       .  T
C337        C338   1.392       .  A
C337        C342   1.405       .  A
C338        C339   1.403       .  A
C338        H343   1.085       .  S
C339        C340   1.435       .  A
C339        C346   1.442       .  S
C340        C341   1.420       .  A
C341        C342   1.403       .  A
C341        H344   1.080       .  S
C342        C345   1.445       .  S
C345        N347   1.157       .  T
C346        N348   1.157       .  T
C349       C1416   1.579       .  S
C349        C350   1.420       .  A
C349        C354   1.440       .  A
C350        C351   1.402       .  A
C350        H355   1.084       .  S
C351        C352   1.408       .  A
C351        C358   1.444       .  S
C352        C353   1.393       .  A
C353        C354   1.401       .  A
C353        H356   1.086       .  S
C354        C357   1.443       .  S
C357        N359   1.158       .  T
C358        N360   1.157       .  T
C361        C362   1.403       .  A
C361        C366   1.415       .  A
C362        C363   1.395       .  A
C362        H367   1.085       .  S
C363        C364   1.411       .  A
C363        C370   1.445       .  S
C364        C365   1.403       .  A
C365        C366   1.404       .  A
C365        H368   1.085       .  S
C366        C369   1.443       .  S
C369        N371   1.157       .  T
C370        N372   1.157       .  T
C373        C374   1.400       .  A
C373        C378   1.409       .  A
C374        C375   1.396       .  A
C374        H379   1.086       .  S
C375        C376   1.418       .  A
C375        C382   1.445       .  S
C376        C377   1.405       .  A
C377        C378   1.402       .  A
C377        H380   1.082       .  S
C378        C381   1.443       .  S
C381        N383   1.157       .  T
C382        N384   1.158       .  T
C385        C386   1.401       .  A
C385        C390   1.408       .  A
C386        C387   1.398       .  A
C386        H391   1.085       .  S
C387        C388   1.417       .  A
C387        C394   1.444       .  S
C388        C389   1.406       .  A
C389        C390   1.399       .  A
C389        H392   1.085       .  S
C390        C393   1.443       .  S
C393        N395   1.157       .  T
C394        N396   1.158       .  T
C397        C398   1.398       .  A
C397        C402   1.408       .  A
C398        C399   1.396       .  A
C398        H403   1.084       .  S
C399        C400   1.419       .  A
C399        C406   1.444       .  S
C400        C401   1.407       .  A
C401        C402   1.402       .  A
C401        H404   1.083       .  S
C402        C405   1.444       .  S
C405        N407   1.157       .  T
C406        N408   1.158       .  T
C409       C1211   1.573       .  S
C409        C410   1.414       .  A
C409       C1614   1.435       .  A
C410        C411   1.405       .  A
C410        H415   1.083       .  S
C411        C412   1.414       .  A
C411        C418   1.444       .  S
C412       C1613   1.397       .  A
C413        C414   1.404       .  A
C413       C1612   1.396   1_455  A
C413        H416   1.085       .  S
C414       C1609   1.435   1_455  A
C414        C417   1.444       .  S
C417        N419   1.158       .  T
C418        N420   1.157       .  T
C421       C1211   1.574       .  S
C421        C426   1.437       .  A
C421       C1622   1.424       .  A
C422        C423   1.401       .  A
C422       C1621   1.424       .  A
C422        H427   1.084       .  S
C423       C1624   1.400       .  A
C423        C430   1.443       .  S
C424        C425   1.395       .  A
C424       C1623   1.400       .  A
C425        C426   1.405       .  A
C425        H428   1.086       .  S
C426        C429   1.441       .  S
C429        N431   1.158       .  T
C430        N432   1.157       .  T
C433        C434   1.420       .  A
C433        C438   1.436       .  A
C434        C435   1.404       .  A
C434        H439   1.080       .  S
C435        C436   1.405       .  A
C435        C442   1.444       .  S
C436        C437   1.391       .  A
C437        C438   1.402       .  A
C437        H440   1.086       .  S
C438        C441   1.441       .  S
C441        N443   1.157       .  T
C442        N444   1.157       .  T
C445       C1211   1.586       .  S
C445        C446   1.417       .  A
C445        C450   1.439       .  A
C446        C447   1.406       .  A
C446        H451   1.083       .  S
C447        C448   1.411       .  A
C447        C454   1.443       .  S
C448        C449   1.397       .  A
C449        C450   1.407       .  A
C449        H452   1.086       .  S
C450        C453   1.445       .  S
C453        N455   1.158       .  T
C454        N456   1.157       .  T
C457        C458   1.399       .  A
C457       C1062   1.408   1_545  A
C458        C459   1.404       .  A
C458        H463   1.086       .  S
C459        C460   1.434       .  A
C459        C466   1.442       .  S
C460       C1061   1.421   1_545  A
C461        C462   1.402       .  A
C461       C1060   1.421       .  A
C461        H464   1.084       .  S
C462       C1057   1.408       .  A
C462        C465   1.444       .  S
C465        N467   1.157       .  T
C466        N468   1.158       .  T
C469        C474   1.429       .  A
C469       C1070   1.422   1_545  A
C470        C471   1.402       .  A
C470       C1069   1.422       .  A
C470        H475   1.080       .  S
C471       C1072   1.409       .  A
C471        C478   1.445       .  S
C472        C473   1.401   1_565  A
C472       C1071   1.409       .  A
C473        C474   1.402       .  A
C473        H476   1.085       .  S
C474        C477   1.442       .  S
C477        N479   1.157       .  T
C478        N480   1.158       .  T
C481        C482   1.422       .  A
C481        C486   1.429       .  A
C482        C483   1.403       .  A
C482        H487   1.079       .  S
C483        C484   1.408       .  A
C483        C490   1.444       .  S
C484        C485   1.401       .  A
C485        C486   1.403       .  A
C485        H488   1.085       .  S
C486        C489   1.442       .  S
C489        N491   1.157       .  T
C490        N492   1.157       .  T
C493        C610   1.577       .  S
C493        C494   1.419       .  A
C493        C498   1.437       .  A
C494        C495   1.399       .  A
C494        H499   1.084       .  S
C495        C496   1.409       .  A
C495        C502   1.444       .  S
C496        C497   1.397       .  A
C497        C498   1.400       .  A
C497        H500   1.086       .  S
C498        C501   1.444       .  S
C501        N503   1.158       .  T
C502        N504   1.157       .  T
C505        C506   1.399       .  A
C505        C510   1.408       .  A
C506        C507   1.400       .  A
C506        H511   1.085       .  S
C507        C508   1.418       .  A
C507        C514   1.442       .  S
C508        C509   1.406       .  A
C509        C510   1.396       .  A
C509        H512   1.084       .  S
C510        C513   1.444       .  S
C513        N515   1.157       .  T
C514        N516   1.157       .  T
C517        C518   1.407       .  A
C517        C522   1.415       .  A
C518        C519   1.396       .  A
C518        H523   1.084       .  S
C519        C520   1.407       .  A
C519        C526   1.444       .  S
C520        C521   1.401       .  A
C521        C522   1.401       .  A
C521        H524   1.085       .  S
C522        C525   1.441       .  S
C525        N527   1.156       .  T
C526        N528   1.157       .  T
C529        C530   1.404       .  A
C529        C534   1.414       .  A
C530        C531   1.398       .  A
C530        H535   1.085       .  S
C531        C532   1.412       .  A
C531        C538   1.445       .  S
C532        C533   1.402       .  A
C533        C534   1.401       .  A
C533        H536   1.084       .  S
C534        C537   1.442       .  S
C537        N539   1.157       .  T
C538        N540   1.157       .  T
C541        C542   1.399       .  A
C541        C546   1.406       .  A
C542        C543   1.400       .  A
C542        H547   1.085       .  S
C543        C544   1.420       .  A
C543        C550   1.444       .  S
C544        C545   1.406       .  A
C545        C546   1.397       .  A
C545        H548   1.084       .  S
C546        C549   1.443       .  S
C549        N551   1.157       .  T
C550        N552   1.157       .  T
C553        C554   1.400       .  A
C553       C1158   1.405   1_545  A
C554        C555   1.404       .  A
C554        H559   1.085       .  S
C555        C556   1.430       .  A
C555        C562   1.444       .  S
C556        C601   1.582       .  S
C556       C1157   1.423   1_545  A
C557        C558   1.400       .  A
C557       C1156   1.423       .  A
C557        H560   1.079       .  S
C558       C1153   1.405       .  A
C558        C561   1.445       .  S
C561        N563   1.157       .  T
C562        N564   1.157       .  T
C565        C566   1.392       .  A
C565       C1170   1.403       .  A
C566        C567   1.403       .  A
C566        H571   1.085       .  S
C567        C568   1.435       .  A
C567        C574   1.443   1_565  S
C568        C601   1.579   1_565  S
C568       C1169   1.420       .  A
C569        C570   1.401       .  A
C569       C1168   1.421       .  A
C569        H572   1.080       .  S
C570       C1165   1.403       .  A
C570        C573   1.445       .  S
C573        N575   1.157       .  T
C574        N576   1.157       .  T
C577        C601   1.572       .  S
C577        C578   1.420       .  A
C577        C582   1.432       .  A
C578        C579   1.400       .  A
C578        H583   1.078       .  S
C579        C580   1.406       .  A
C579        C586   1.445       .  S
C580        C581   1.400       .  A
C581        C582   1.403       .  A
C581        H584   1.085       .  S
C582        C585   1.445       .  S
C585        N587   1.157       .  T
C586        N588   1.157       .  T
C589        C590   1.423       .  A
C589        C594   1.434       .  A
C590        C591   1.398       .  A
C590        H595   1.084       .  S
C591        C592   1.398       .  A
C591        C598   1.444       .  S
C592        C593   1.395       .  A
C593        C594   1.401       .  A
C593        H596   1.086       .  S
C594        C597   1.443       .  S
C597        N599   1.158       .  T
C598        N600   1.157       .  T
C601       C1189   1.572   1_545  S
C602        C603   1.405   1_554  A
C602       C1807   1.399       .  A
C602       C1120   1.476       .  S
C603       C1804   1.398       .  A
C603       C1141   1.474       .  S
C604       C1803   1.398       .  A
C604        C605   1.403   1_655  A
C604        H609   1.085       .  S
C605        C606   1.412   1_556  A
C605       C1132   1.485       .  S
C606        C607   1.400   1_455  A
C606       C1105   1.476       .  S
C607       C1802   1.399       .  A
C607        H608   1.085       .  S
C610       C1060   1.568       .  S
C610       C1069   1.583       .  S
C610       C1081   1.577       .  S
C611       C2209   1.573       .  S
C611       C2221   1.575       .  S
C611       C1033   1.579   1_655  S
C611       C2245   1.586       .  S
C612        C613   1.409   1_556  A
C612        C997   1.479       .  S
C613        C973   1.479       .  S
C614        C615   1.399       .  A
C614        H619   1.085       .  S
C615        C616   1.408   1_554  A
C615        C964   1.478       .  S
C616        C617   1.401       .  A
C616        C985   1.476       .  S
C617        H618   1.085       .  S
N620        N621   1.317       .  A
N620        N626   1.313       .  A
N620       Mn649   2.183       .  S
N621        C628   1.350       .  A
N622        N624   1.318       .  A
N622        N623   1.319       .  A
N622       Mn638   2.201       .  S
N623        C629   1.352       .  A
N624        N625   1.321       .  A
N624       Mn649   2.208       .  S
N625        C629   1.354       .  A
N626        N627   1.323       .  A
N626       Mn638   2.215       .  S
N627        C628   1.358       .  A
C628       C1000   1.490       .  S
C629       C1096   1.485       .  S
N630        N636   1.319       .  A
N630        N631   1.322       .  A
N630       Mn660   2.210       .  S
N631        C639   1.352       .  A
N632        N633   1.317       .  A
N632        N634   1.312       .  A
N632       Mn638   2.180       .  S
N633        C640   1.350       .  A
N634        N635   1.321       .  A
N634       Mn660   2.204       .  S
N635        C640   1.357       .  A
N636        N637   1.325       .  A
N636       Mn638   2.234       .  S
N637        C639   1.358       .  A
Mn638      Cl662   2.547       .  S
C639       C1048   1.493       .  S
C640       C1144   1.486       .  S
N641        N642   1.322       .  A
N641        N647   1.319       .  A
N641       Mn649   2.206       .  S
N642        C650   1.351       .  A
N643        N645   1.313       .  A
N643        N644   1.321       .  A
N643       Mn661   2.203       .  S
N644        C651   1.355       .  A
N645        N646   1.319       .  A
N645       Mn649   2.190       .  S
N646        C651   1.352       .  A
N647        N648   1.323       .  A
N647       Mn661   2.227       .  S
N648        C650   1.354       .  A
Mn649      Cl662   2.550       .  S
C650       C1036   1.480       .  S
C651       C1129   1.481       .  S
N652        N653   1.319       .  A
N652        N658   1.314       .  A
N652       Mn660   2.188       .  S
N653        C663   1.353       .  A
N654        N655   1.323       .  A
N654        N656   1.319       .  A
N654       Mn661   2.218       .  S
N655        C664   1.355       .  A
N656        N657   1.320       .  A
N656       Mn660   2.215       .  S
N657        C664   1.354       .  A
N658        N659   1.319       .  A
N658       Mn661   2.198       .  S
N659        C663   1.353       .  A
Mn660      Cl662   2.549       .  S
Mn661      Cl662   2.548       .  S
C663        C988   1.483       .  S
C664       C1084   1.492       .  S
N665        N666   1.320       .  A
N665        N671   1.318       .  A
N665       Mn694   2.195       .  S
N666        C673   1.350       .  A
N667        N669   1.314       .  A
N667        N668   1.318       .  A
N667       Mn683   2.192       .  S
N668        C674   1.352       .  A
N669        N670   1.321       .  A
N669       Mn694   2.202       .  S
N670        C674   1.356       .  A
N671        N672   1.323       .  A
N671       Mn683   2.225       .  S
N672        C673   1.355       .  A
C673        C937   1.476       .  S
C674       C1108   1.487       .  S
N675        N681   1.314       .  A
N675        N676   1.316       .  A
N675       Mn705   2.181       .  S
N676        C684   1.349       .  A
N677        N678   1.319       .  A
N677        N679   1.318       .  A
N677       Mn683   2.201       .  S
N678        C685   1.350       .  A
N679        N680   1.321       .  A
N679       Mn705   2.210       .  S
N680        C685   1.352       .  A
N681        N682   1.324       .  A
N681       Mn683   2.217       .  S
N682        C684   1.358       .  A
Mn683      Cl707   2.545       .  S
C684        C976   1.487       .  S
C685       C1192   1.468       .  S
N686        N687   1.321       .  A
N686        N692   1.313       .  A
N686       Mn694   2.194       .  S
N687        C695   1.354       .  A
N688        N690   1.317       .  A
N688        N689   1.321       .  A
N688       Mn706   2.203       .  S
N689        C696   1.354       .  A
N690        N691   1.321       .  A
N690       Mn694   2.213       .  S
N691        C696   1.354       .  A
N692        N693   1.318       .  A
N692       Mn706   2.188       .  S
N693        C695   1.351       .  A
Mn694      Cl707   2.547       .  S
C695        C961   1.479       .  S
C696       C1180   1.484       .  S
N697        N698   1.322       .  A
N697        N703   1.317       .  A
N697       Mn705   2.202       .  S
N698        C708   1.352       .  A
N699        N700   1.317       .  A
N699        N701   1.313       .  A
N699       Mn706   2.186       .  S
N700        C709   1.351       .  A
N701        N702   1.321       .  A
N701       Mn705   2.201       .  S
N702        C709   1.355       .  A
N703        N704   1.320       .  A
N703       Mn706   2.206       .  S
N704        C708   1.353       .  A
Mn705      Cl707   2.547       .  S
Mn706      Cl707   2.542       .  S
C708        C952   1.483       .  S
C709       C1117   1.483       .  S
N710        N711   1.320       .  A
N710       N1916   1.317       .  A
N710       Mn739   2.196       .  S
N711        C718   1.351       .  A
N712       N1914   1.313   1_455  A
N712        N713   1.322       .  A
N712       Mn728   2.206       .  S
N713        C719   1.356       .  A
N714       N1912   1.313       .  A
N714        N715   1.317       .  A
N714       Mn739   2.185       .  S
N715       C1919   1.352       .  A
N716       N1910   1.317   1_455  A
N716        N717   1.325       .  A
N716       Mn728   2.232       .  S
N717       C1918   1.359   1_455  A
C718       C1012   1.490       .  S
C718       N1917   1.359       .  A
C719        C913   1.485       .  S
C719       N1915   1.352   1_455  A
N720        N721   1.323       .  A
N720       Mn750   2.205       .  S
N722        N723   1.321       .  A
N722       Mn728   2.215       .  S
N723        C730   1.355       .  A
N724        N725   1.321       .  A
N724       Mn750   2.209       .  S
N726        N727   1.319       .  A
N726       Mn728   2.201       .  S
N727        C729   1.353       .  A
Mn728     Cl1952   2.552       .  S
C729        C892   1.490       .  S
C730       C1072   1.489       .  S
N731        N732   1.319       .  A
N731       Mn739   2.191       .  S
N732        C740   1.353       .  A
N733        N734   1.323       .  A
N733       Mn751   2.215       .  S
N735        N736   1.318       .  A
N735       Mn739   2.194       .  S
N736        C741   1.351       .  A
N737        N738   1.318       .  A
N737       Mn751   2.194       .  S
Mn739      Cl752   2.538       .  S
C740        C901   1.478       .  S
C741       C1057   1.484       .  S
N742        N743   1.322       .  A
N742       N1948   1.319   1_455  A
N742       Mn750   2.217       .  S
N743       C1953   1.352   1_455  A
N744        N745   1.320       .  A
N744       N1946   1.313       .  A
N744       Mn751   2.193       .  S
N745       C1954   1.354       .  A
N746       N1944   1.313   1_455  A
N746        N747   1.319       .  A
N746       Mn750   2.196       .  S
N747        C754   1.354       .  A
N748       N1942   1.319       .  A
N748        N749   1.323       .  A
N748       Mn751   2.216       .  S
N749        C753   1.354       .  A
Mn750     Cl1352   2.544       .  S
Cl752     Mn1928   2.549       .  S
Cl752     Mn1350   2.543       .  S
C753       C1024   1.478       .  S
C753       N1943   1.352       .  A
C754        C928   1.486       .  S
C754       N1945   1.353   1_455  A
N755        N756   1.321       .  A
N755       N1961   1.318       .  A
N755       Mn784   2.205       .  S
N756        C763   1.353       .  A
N757       N1959   1.313   1_455  A
N757        N758   1.320       .  A
N757       Mn773   2.195       .  S
N758        C764   1.354   1_455  A
N759       N1957   1.314       .  A
N759        N760   1.319       .  A
N759       Mn784   2.192       .  S
N760       C1964   1.352       .  A
N761       N1955   1.318   1_455  A
N761        N762   1.321       .  A
N761       Mn773   2.217       .  S
N762       C1963   1.355   1_455  A
C763        C817   1.482       .  S
C763       N1962   1.354       .  A
C764        C853   1.485       .  S
C764       N1960   1.353       .  A
N765        N766   1.320       .  A
N765       Mn795   2.195       .  S
N767        N768   1.322       .  A
N767       Mn773   2.205       .  S
N769        N770   1.320       .  A
N769       Mn795   2.208       .  S
N770        C775   1.351       .  A
N771        N772   1.320       .  A
N771       Mn773   2.204       .  S
N772        C774   1.355       .  A
Mn773     Cl1997   2.549       .  S
C774        C865   1.486       .  S
C775       C1165   1.473       .  S
N776        N777   1.320       .  A
N776       Mn784   2.202       .  S
N777        C785   1.354   1_565  A
N778        N779   1.321       .  A
N778       Mn796   2.205       .  S
N779        C786   1.353       .  A
N780        N781   1.321       .  A
N780       Mn784   2.211       .  S
N782        N783   1.319       .  A
N782       Mn796   2.198       .  S
Mn784      Cl797   2.544       .  S
C785        C877   1.481       .  S
C786       C1153   1.485       .  S
N787        N788   1.319       .  A
N787       N1993   1.318   1_455  A
N787       Mn795   2.196       .  S
N788       C1998   1.349       .  A
N789        N790   1.320       .  A
N789       N1991   1.313       .  A
N789       Mn796   2.190       .  S
N790       C1999   1.352       .  A
N791       N1989   1.313   1_455  A
N791        N792   1.319       .  A
N791       Mn795   2.200       .  S
N792        C799   1.355   1_455  A
N793       N1987   1.318       .  A
N793        N794   1.322       .  A
N793       Mn796   2.218       .  S
N794        C798   1.355       .  A
Mn795     Cl1397   2.539   1_455  S
Cl797     Mn1973   2.549       .  S
Cl797     Mn1395   2.541   1_565  S
C798        C832   1.469       .  S
C798       N1988   1.348       .  A
C799        C841   1.486   1_655  S
C799       N1990   1.353       .  A
C800        C801   1.407       .  A
C800        C805   1.400       .  A
C800        C925   1.475       .  S
C801        C802   1.400       .  A
C801        C856   1.476       .  S
C802        C803   1.400       .  A
C802        H807   1.085       .  S
C803        C804   1.406       .  A
C803        C844   1.476       .  S
C804        C805   1.401       .  A
C804        C916   1.475       .  S
C805        H806   1.085       .  S
C808        C809   1.407       .  A
C808        C813   1.402       .  A
C808        C904   1.474       .  S
C809        C810   1.400       .  A
C809        C880   1.483       .  S
C810        C811   1.402       .  A
C810        H815   1.085       .  S
C811        C812   1.411       .  A
C811        C868   1.476       .  S
C812        C813   1.401       .  A
C812        C889   1.483       .  S
C813        H814   1.085       .  S
C816       C2020   1.578   1_455  S
C816       C2029   1.566       .  S
C816        C940   1.582       .  S
C816       C2149   1.580   1_455  S
C817       C2018   1.398       .  A
C817        C822   1.403       .  A
C818       C2017   1.398       .  A
C818        C819   1.404       .  A
C818        H823   1.085       .  S
C819       C2020   1.432       .  A
C819        C826   1.442       .  S
C820       C2016   1.577       .  S
C820       C2019   1.433       .  A
C820        C821   1.422       .  A
C821        C822   1.400       .  A
C821        H824   1.079       .  S
C822        C825   1.445       .  S
C825        N827   1.157       .  T
C826        N828   1.157       .  T
C829       C2016   1.565       .  S
C829        C830   1.424       .  A
C829       C2034   1.432       .  A
C830        C831   1.401       .  A
C830        H835   1.083       .  S
C831        C832   1.400       .  A
C831        C838   1.444       .  S
C832       C2033   1.395       .  A
C833       C2032   1.395       .  A
C833        C834   1.402       .  A
C833        H836   1.086       .  S
C834       C2029   1.432       .  A
C834        C837   1.442       .  S
C837        N839   1.158       .  T
C838        N840   1.157       .  T
C841        C842   1.405       .  A
C841       C2046   1.419   1_455  A
C842        C843   1.396       .  A
C842        H847   1.083       .  S
C843        C844   1.406       .  A
C843        C850   1.444       .  S
C844       C2045   1.401   1_455  A
C845       C2044   1.400       .  A
C845        C846   1.403       .  A
C845        H848   1.085       .  S
C846       C2041   1.419       .  A
C846        C849   1.444       .  S
C849        N851   1.157       .  T
C850        N852   1.157       .  T
C853        C854   1.407   1_655  A
C853       C2058   1.417       .  A
C854        C855   1.400       .  A
C854        H859   1.085       .  S
C855        C856   1.407       .  A
C855        C862   1.443       .  S
C856       C2057   1.400   1_455  A
C857       C2056   1.402       .  A
C857        C858   1.398       .  A
C857        H860   1.085       .  S
C858       C2053   1.416       .  A
C858        C861   1.444       .  S
C861        N863   1.157       .  T
C862        N864   1.157       .  T
C865        C866   1.404       .  A
C866        C867   1.397       .  A
C866        H871   1.084       .  S
C867        C874   1.445       .  S
C868        C869   1.399       .  A
C869        C870   1.403       .  A
C869        H872   1.085       .  S
C870        C873   1.442       .  S
C873        N875   1.157       .  T
C874        N876   1.157       .  T
C877        C882   1.414   1_545  A
C878        C879   1.397       .  A
C878        H883   1.084       .  S
C879        C880   1.411       .  A
C879        C886   1.444       .  S
C881        C882   1.401       .  A
C881        H884   1.084       .  S
C882        C885   1.443       .  S
C885        N887   1.157       .  T
C886        N888   1.157       .  T
C889        C890   1.402       .  A
C890        C891   1.399       .  A
C890        H895   1.085       .  S
C891        C892   1.417       .  A
C891        C898   1.444       .  S
C893        C894   1.405       .  A
C893        H896   1.084       .  S
C894        C897   1.442       .  S
C897        N899   1.157       .  T
C898        N900   1.158       .  T
C901        C906   1.415       .  A
C902        C903   1.394       .  A
C902        H907   1.084       .  S
C903        C910   1.444       .  S
C904        C905   1.400       .  A
C905        C906   1.400       .  A
C905        H908   1.085       .  S
C906        C909   1.443       .  S
C909        N911   1.157       .  T
C910        N912   1.157       .  T
C913       C2114   1.406   1_455  A
C913        C918   1.415       .  A
C914       C2113   1.406       .  A
C914        C915   1.396       .  A
C914        H919   1.084       .  S
C915       C2116   1.406       .  A
C915        C922   1.445       .  S
C916       C2115   1.407   1_455  A
C916        C917   1.400       .  A
C917        C918   1.402       .  A
C917        H920   1.085       .  S
C918        C921   1.440       .  S
C921        N923   1.156       .  T
C922        N924   1.157       .  T
C925        C926   1.399       .  A
C925       C2130   1.406   1_455  A
C926        C927   1.398       .  A
C926        H931   1.084       .  S
C927        C928   1.417       .  A
C927        C934   1.444       .  S
C928       C2129   1.409   1_455  A
C929       C2128   1.409       .  A
C929        C930   1.401       .  A
C929        H932   1.084       .  S
C930       C2125   1.406       .  A
C930        C933   1.444       .  S
C933        N935   1.157       .  T
C934        N936   1.157       .  T
C937        C938   1.392       .  A
C937        C942   1.405       .  A
C938        C939   1.403       .  A
C938        H943   1.085       .  S
C939        C940   1.435       .  A
C939        C946   1.442       .  S
C940        C941   1.421       .  A
C941        C942   1.403       .  A
C941        H944   1.081       .  S
C942        C945   1.445       .  S
C945        N947   1.157       .  T
C946        N948   1.157       .  T
C949       C2016   1.579       .  S
C949        C950   1.420       .  A
C949        C954   1.440       .  A
C950        C951   1.402       .  A
C950        H955   1.084       .  S
C951        C952   1.408       .  A
C951        C958   1.444       .  S
C952        C953   1.393       .  A
C953        C954   1.400       .  A
C953        H956   1.086       .  S
C954        C957   1.443       .  S
C957        N959   1.158       .  T
C958        N960   1.157       .  T
C961        C962   1.403       .  A
C961        C966   1.414       .  A
C962        C963   1.394       .  A
C962        H967   1.085       .  S
C963        C964   1.411       .  A
C963        C970   1.445       .  S
C964        C965   1.402       .  A
C965        C966   1.402       .  A
C965        H968   1.085       .  S
C966        C969   1.443       .  S
C969        N971   1.157       .  T
C970        N972   1.157       .  T
C973        C974   1.400       .  A
C973        C978   1.410       .  A
C974        C975   1.397       .  A
C974        H979   1.086       .  S
C975        C976   1.418       .  A
C975        C982   1.444       .  S
C976        C977   1.405       .  A
C977        C978   1.402       .  A
C977        H980   1.082       .  S
C978        C981   1.443       .  S
C981        N983   1.157       .  T
C982        N984   1.158       .  T
C985        C986   1.400       .  A
C985        C990   1.407       .  A
C986        C987   1.397       .  A
C986        H991   1.085       .  S
C987        C988   1.416       .  A
C987        C994   1.444       .  S
C988        C989   1.408       .  A
C989        C990   1.400       .  A
C989        H992   1.084       .  S
C990        C993   1.443       .  S
C993        N995   1.157       .  T
C994        N996   1.157       .  T
C997        C998   1.398       .  A
C997       C1002   1.408       .  A
C998        C999   1.398       .  A
C998       H1003   1.084       .  S
C999       C1000   1.420       .  A
C999       C1006   1.444       .  S
C1000      C1001   1.407       .  A
C1001      C1002   1.403       .  A
C1001      H1004   1.083       .  S
C1002      C1005   1.443       .  S
C1005      N1007   1.157       .  T
C1006      N1008   1.158       .  T
C1009      C1811   1.573       .  S
C1009      C1010   1.415       .  A
C1009      C2214   1.435       .  A
C1010      C1011   1.405       .  A
C1010      H1015   1.082       .  S
C1011      C1012   1.413       .  A
C1011      C1018   1.444       .  S
C1012      C2213   1.397       .  A
C1013      C2212   1.397   1_455  A
C1013      C1014   1.404       .  A
C1013      H1016   1.085       .  S
C1014      C2209   1.434   1_455  A
C1014      C1017   1.444       .  S
C1017      N1019   1.158       .  T
C1018      N1020   1.157       .  T
C1021      C1811   1.574       .  S
C1021      C2222   1.425       .  A
C1021      C1026   1.436       .  A
C1022      C2221   1.424       .  A
C1022      C1023   1.402       .  A
C1022      H1027   1.084       .  S
C1023      C2224   1.400       .  A
C1023      C1030   1.443       .  S
C1024      C2223   1.400       .  A
C1024      C1025   1.396       .  A
C1025      C1026   1.406       .  A
C1025      H1028   1.086       .  S
C1026      C1029   1.441       .  S
C1029      N1031   1.158       .  T
C1030      N1032   1.157       .  T
C1033      C1034   1.420       .  A
C1033      C1038   1.436       .  A
C1034      C1035   1.406       .  A
C1034      H1039   1.080       .  S
C1035      C1036   1.406       .  A
C1035      C1042   1.444       .  S
C1036      C1037   1.392       .  A
C1037      C1038   1.403       .  A
C1037      H1040   1.086       .  S
C1038      C1041   1.441       .  S
C1041      N1043   1.157       .  T
C1042      N1044   1.157       .  T
C1045      C1811   1.584       .  S
C1045      C1046   1.417       .  A
C1045      C1050   1.438       .  A
C1046      C1047   1.406       .  A
C1046      H1051   1.083       .  S
C1047      C1048   1.412       .  A
C1047      C1054   1.444       .  S
C1048      C1049   1.397       .  A
C1049      C1050   1.406       .  A
C1049      H1052   1.086       .  S
C1050      C1053   1.445       .  S
C1053      N1055   1.158       .  T
C1054      N1056   1.157       .  T
C1057      C1058   1.399       .  A
C1058      C1059   1.401       .  A
C1058      H1063   1.086       .  S
C1059      C1060   1.433       .  A
C1059      C1066   1.442       .  S
C1061      C1062   1.403       .  A
C1061      H1064   1.084       .  S
C1062      C1065   1.444       .  S
C1065      N1067   1.157       .  T
C1066      N1068   1.158       .  T
C1069      C1074   1.429       .  A
C1070      C1071   1.403       .  A
C1070      H1075   1.080       .  S
C1071      C1078   1.445       .  S
C1072      C1073   1.399       .  A
C1073      C1074   1.401       .  A
C1073      H1076   1.085       .  S
C1074      C1077   1.442       .  S
C1077      N1079   1.157       .  T
C1078      N1080   1.157       .  T
C1081      C1082   1.422       .  A
C1081      C1086   1.429       .  A
C1082      C1083   1.403       .  A
C1082      H1087   1.079       .  S
C1083      C1084   1.408       .  A
C1083      C1090   1.444       .  S
C1084      C1085   1.401       .  A
C1085      C1086   1.404       .  A
C1085      H1088   1.085       .  S
C1086      C1089   1.442       .  S
C1089      N1091   1.157       .  T
C1090      N1092   1.157       .  T
C1093      C1094   1.419       .  A
C1093      C1098   1.436       .  A
C1094      C1095   1.400       .  A
C1094      H1099   1.084       .  S
C1095      C1096   1.409       .  A
C1095      C1102   1.444       .  S
C1096      C1097   1.398       .  A
C1097      C1098   1.401       .  A
C1097      H1100   1.086       .  S
C1098      C1101   1.444       .  S
C1101      N1103   1.158       .  T
C1102      N1104   1.157       .  T
C1105      C1106   1.398       .  A
C1105      C1110   1.408       .  A
C1106      C1107   1.400       .  A
C1106      H1111   1.085       .  S
C1107      C1108   1.419       .  A
C1107      C1114   1.443       .  S
C1108      C1109   1.406       .  A
C1109      C1110   1.398       .  A
C1109      H1112   1.084       .  S
C1110      C1113   1.444       .  S
C1113      N1115   1.157       .  T
C1114      N1116   1.157       .  T
C1117      C1118   1.406       .  A
C1117      C1122   1.415       .  A
C1118      C1119   1.396       .  A
C1118      H1123   1.084       .  S
C1119      C1120   1.407       .  A
C1119      C1126   1.443       .  S
C1120      C1121   1.400       .  A
C1121      C1122   1.400       .  A
C1121      H1124   1.085       .  S
C1122      C1125   1.440       .  S
C1125      N1127   1.156       .  T
C1126      N1128   1.157       .  T
C1129      C1130   1.403       .  A
C1129      C1134   1.413       .  A
C1130      C1131   1.397       .  A
C1130      H1135   1.085       .  S
C1131      C1132   1.413       .  A
C1131      C1138   1.445       .  S
C1132      C1133   1.403       .  A
C1133      C1134   1.401       .  A
C1133      H1136   1.084       .  S
C1134      C1137   1.443       .  S
C1137      N1139   1.157       .  T
C1138      N1140   1.157       .  T
C1141      C1142   1.399       .  A
C1141      C1146   1.407       .  A
C1142      C1143   1.399       .  A
C1142      H1147   1.085       .  S
C1143      C1144   1.420       .  A
C1143      C1150   1.444       .  S
C1144      C1145   1.406       .  A
C1145      C1146   1.397       .  A
C1145      H1148   1.084       .  S
C1146      C1149   1.443       .  S
C1149      N1151   1.157       .  T
C1150      N1152   1.157       .  T
C1153      C1154   1.400       .  A
C1154      C1155   1.404       .  A
C1154      H1159   1.085       .  S
C1155      C1156   1.430       .  A
C1155      C1162   1.444       .  S
C1157      C1158   1.401       .  A
C1157      H1160   1.079       .  S
C1158      C1161   1.445       .  S
C1161      N1163   1.157       .  T
C1162      N1164   1.157       .  T
C1165      C1166   1.392       .  A
C1166      C1167   1.402       .  A
C1166      H1171   1.086       .  S
C1167      C1168   1.435       .  A
C1167      C1174   1.442       .  S
C1169      C1170   1.402       .  A
C1169      H1172   1.080       .  S
C1170      C1173   1.444       .  S
C1173      N1175   1.157       .  T
C1174      N1176   1.157       .  T
C1177      C1178   1.419       .  A
C1177      C1182   1.432       .  A
C1178      C1179   1.400       .  A
C1178      H1183   1.078       .  S
C1179      C1180   1.406       .  A
C1179      C1186   1.445       .  S
C1180      C1181   1.399       .  A
C1181      C1182   1.403       .  A
C1181      H1184   1.085       .  S
C1182      C1185   1.445       .  S
C1185      N1187   1.158       .  T
C1186      N1188   1.157       .  T
C1189      C1190   1.423       .  A
C1189      C1194   1.434       .  A
C1190      C1191   1.398       .  A
C1190      H1195   1.084       .  S
C1191      C1192   1.398       .  A
C1191      C1198   1.444       .  S
C1192      C1193   1.395       .  A
C1193      C1194   1.402       .  A
C1193      H1196   1.086       .  S
C1194      C1197   1.443       .  S
C1197      N1199   1.158   1_565  T
C1198      N1200   1.157       .  T
C1201      C2356   1.583       .  S
C1201      C2368   1.580       .  S
C1201      C2377   1.572       .  S
C1201      C1789   1.572       .  S
C1202      C1203   1.405   1_554  A
C1202      C1720   1.476       .  S
C1203      C1741   1.473       .  S
C1204      C1205   1.403       .  A
C1204      H1209   1.085       .  S
C1205      C1206   1.412   1_556  A
C1205      C1732   1.485       .  S
C1206      C1207   1.401       .  A
C1206      C1705   1.476       .  S
C1207      H1208   1.085       .  S
C1210      C1660   1.569       .  S
C1210      C1669   1.584       .  S
C1210      C1681   1.578       .  S
C1210      C2293   1.577   1_545  S
C1211      C1633   1.578       .  S
C1212      C1213   1.409   1_556  A
C1212      C1817   1.401       .  A
C1212      C1597   1.478       .  S
C1213      C1814   1.399       .  A
C1213      C1573   1.477       .  S
C1214      C1813   1.398   1_545  A
C1214      C1215   1.398       .  A
C1214      H1219   1.085       .  S
C1215      C1216   1.409   1_554  A
C1215      C1564   1.480       .  S
C1216      C1217   1.402       .  A
C1216      C1585   1.476       .  S
C1217      C1812   1.401   1_545  A
C1217      H1218   1.085       .  S
N1220      N1221   1.317       .  A
N1220      N1226   1.314       .  A
N1220     Mn1249   2.184       .  S
N1221      C1228   1.350       .  A
N1222      N1224   1.319       .  A
N1222      N1223   1.319       .  A
N1222     Mn1238   2.203       .  S
N1223      C1229   1.352       .  A
N1224      N1225   1.321       .  A
N1224     Mn1249   2.207       .  S
N1225      C1229   1.353       .  A
N1226      N1227   1.324       .  A
N1226     Mn1238   2.216       .  S
N1227      C1228   1.358       .  A
C1228      C1600   1.491       .  S
C1229      C1696   1.485       .  S
N1230      N1236   1.319       .  A
N1230      N1231   1.322       .  A
N1230     Mn1260   2.212       .  S
N1231      C1239   1.353       .  A
N1232      N1233   1.318       .  A
N1232      N1234   1.312       .  A
N1232     Mn1238   2.184       .  S
N1233      C1240   1.351       .  A
N1234      N1235   1.321       .  A
N1234     Mn1260   2.201       .  S
N1235      C1240   1.356       .  A
N1236      N1237   1.326       .  A
N1236     Mn1238   2.237       .  S
N1237      C1239   1.358       .  A
Mn1238    Cl1262   2.547       .  S
C1239      C1648   1.495       .  S
C1240      C1744   1.486       .  S
N1241      N1242   1.322       .  A
N1241      N1247   1.319       .  A
N1241     Mn1249   2.209       .  S
N1242      C1250   1.352       .  A
N1243      N1245   1.313       .  A
N1243      N1244   1.321       .  A
N1243     Mn1261   2.205       .  S
N1244      C1251   1.355       .  A
N1245      N1246   1.319       .  A
N1245     Mn1249   2.190       .  S
N1246      C1251   1.352       .  A
N1247      N1248   1.323       .  A
N1247     Mn1261   2.224       .  S
N1248      C1250   1.354       .  A
Mn1249    Cl1262   2.551       .  S
C1250      C1636   1.480       .  S
C1251      C1729   1.483       .  S
N1252      N1253   1.320       .  A
N1252      N1258   1.314       .  A
N1252     Mn1260   2.191       .  S
N1253      C1263   1.354       .  A
N1254      N1255   1.323       .  A
N1254      N1256   1.319       .  A
N1254     Mn1261   2.220       .  S
N1255      C1264   1.356       .  A
N1256      N1257   1.321       .  A
N1256     Mn1260   2.213       .  S
N1257      C1264   1.354       .  A
N1258      N1259   1.318       .  A
N1258     Mn1261   2.194       .  S
N1259      C1263   1.352       .  A
Mn1260    Cl1262   2.550       .  S
Mn1261    Cl1262   2.547       .  S
C1263      C1588   1.482       .  S
C1264      C1684   1.493       .  S
N1265      N1266   1.320       .  A
N1265      N1271   1.318       .  A
N1265     Mn1294   2.196       .  S
N1266      C1273   1.350       .  A
N1267      N1269   1.314       .  A
N1267      N1268   1.318       .  A
N1267     Mn1283   2.193       .  S
N1268      C1274   1.352       .  A
N1269      N1270   1.320       .  A
N1269     Mn1294   2.200       .  S
N1270      C1274   1.355       .  A
N1271      N1272   1.323       .  A
N1271     Mn1283   2.224       .  S
N1272      C1273   1.355       .  A
C1273      C1537   1.476       .  S
C1274      C1708   1.486       .  S
N1275      N1281   1.314       .  A
N1275      N1276   1.315       .  A
N1275     Mn1305   2.180       .  S
N1276      C1284   1.349       .  A
N1277      N1278   1.319       .  A
N1277      N1279   1.319       .  A
N1277     Mn1283   2.201       .  S
N1278      C1285   1.350       .  A
N1279      N1280   1.321       .  A
N1279     Mn1305   2.212       .  S
N1280      C1285   1.353       .  A
N1281      N1282   1.324       .  A
N1281     Mn1283   2.216       .  S
N1282      C1284   1.358       .  A
Mn1283    Cl1307   2.545       .  S
C1284      C1576   1.486       .  S
C1285      C1792   1.469       .  S
N1286      N1287   1.322       .  A
N1286      N1292   1.313       .  A
N1286     Mn1294   2.198       .  S
N1287      C1295   1.355       .  A
N1288      N1290   1.317       .  A
N1288      N1289   1.321       .  A
N1288     Mn1306   2.204       .  S
N1289      C1296   1.354       .  A
N1290      N1291   1.321       .  A
N1290     Mn1294   2.213       .  S
N1291      C1296   1.354       .  A
N1292      N1293   1.317       .  A
N1292     Mn1306   2.186       .  S
N1293      C1295   1.351       .  A
Mn1294    Cl1307   2.547       .  S
C1295      C1561   1.480       .  S
C1296      C1780   1.484       .  S
N1297      N1298   1.322       .  A
N1297      N1303   1.317       .  A
N1297     Mn1305   2.202       .  S
N1298      C1308   1.352       .  A
N1299      N1300   1.317       .  A
N1299      N1301   1.313       .  A
N1299     Mn1306   2.186       .  S
N1300      C1309   1.351       .  A
N1301      N1302   1.322       .  A
N1301     Mn1305   2.203       .  S
N1302      C1309   1.356       .  A
N1303      N1304   1.320       .  A
N1303     Mn1306   2.204       .  S
N1304      C1308   1.353       .  A
Mn1305    Cl1307   2.547       .  S
Mn1306    Cl1307   2.542       .  S
C1308      C1552   1.482       .  S
C1309      C1717   1.484       .  S
N1310      N1311   1.319       .  A
N1310     Mn1339   2.194       .  S
N1311      C1318   1.350       .  A
N1312      N1313   1.323       .  A
N1312     Mn1328   2.207       .  S
N1313      C1319   1.356       .  A
N1314      N1315   1.318       .  A
N1314     Mn1339   2.187       .  S
N1316      N1317   1.325       .  A
N1316     Mn1328   2.236       .  S
C1318      C1612   1.489       .  S
C1319      C1513   1.486       .  S
N1320      N1926   1.315       .  A
N1320      N1321   1.323       .  A
N1320     Mn1350   2.208       .  S
N1321      C1929   1.356       .  A
N1322      N1323   1.321       .  A
N1322      N1924   1.318   1_545  A
N1322     Mn1328   2.214       .  S
N1323      C1330   1.355   1_545  A
N1324      N1922   1.318       .  A
N1324      N1325   1.321       .  A
N1324     Mn1350   2.204       .  S
N1325      C1930   1.353       .  A
N1326      N1920   1.315   1_545  A
N1326      N1327   1.319       .  A
N1326     Mn1328   2.205       .  S
N1327      C1329   1.353   1_545  A
C1329      C1492   1.491       .  S
C1329      N1921   1.356       .  A
C1330      C1672   1.490       .  S
C1330      N1925   1.352       .  A
N1331      N1332   1.319       .  A
N1331      N1937   1.313   1_545  A
N1331     Mn1339   2.190       .  S
N1332      C1340   1.353   1_545  A
N1333      N1935   1.317       .  A
N1333      N1334   1.323       .  A
N1333     Mn1351   2.217       .  S
N1334      C1941   1.357       .  A
N1335      N1933   1.317   1_545  A
N1335      N1336   1.319       .  A
N1335     Mn1339   2.198       .  S
N1336      C1341   1.351   1_545  A
N1337      N1931   1.313       .  A
N1337      N1338   1.318       .  A
N1337     Mn1351   2.188       .  S
N1338      C1940   1.353       .  A
Mn1339    Cl1352   2.540   1_645  S
C1340      C1501   1.480       .  S
C1340      N1938   1.353       .  A
C1341      C1657   1.485   1_565  S
C1341      N1934   1.355       .  A
N1342      N1343   1.321       .  A
N1342     Mn1350   2.216       .  S
N1344      N1345   1.320       .  A
N1344     Mn1351   2.194       .  S
N1346      N1347   1.319       .  A
N1346     Mn1350   2.197       .  S
N1347      C1354   1.354       .  A
N1348      N1349   1.323       .  A
N1348     Mn1351   2.215       .  S
N1349      C1353   1.353       .  A
Mn1351    Cl1952   2.554   1_655  S
Cl1352    Mn1951   2.551   1_455  S
C1353      C1624   1.477       .  S
C1354      C1528   1.486       .  S
N1355      N1356   1.320       .  A
N1355     Mn1384   2.203       .  S
N1356      C1363   1.353       .  A
N1357      N1358   1.319       .  A
N1357     Mn1373   2.196       .  S
N1358      C1364   1.354       .  A
N1359      N1360   1.319       .  A
N1359     Mn1384   2.192       .  S
N1361      N1362   1.322       .  A
N1361     Mn1373   2.221       .  S
C1363      C1417   1.482       .  S
C1364      C1453   1.486       .  S
N1365      N1971   1.314   1_545  A
N1365      N1366   1.321       .  A
N1365     Mn1395   2.202       .  S
N1366      C1974   1.354   1_545  A
N1367      N1368   1.322       .  A
N1367      N1969   1.317       .  A
N1367     Mn1373   2.207       .  S
N1368      C1975   1.352       .  A
N1369      N1967   1.317   1_545  A
N1369      N1370   1.321       .  A
N1369     Mn1395   2.208       .  S
N1370      C1375   1.351   1_545  A
N1371      N1965   1.314       .  A
N1371      N1372   1.321       .  A
N1371     Mn1373   2.209       .  S
N1372      C1374   1.356       .  A
C1374      C1465   1.486       .  S
C1374      N1966   1.352       .  A
C1375      C1765   1.477       .  S
C1375      N1968   1.354       .  A
N1376      N1377   1.321       .  A
N1376      N1982   1.314       .  A
N1376     Mn1384   2.199       .  S
N1377      C1385   1.354       .  A
N1378      N1980   1.317   1_545  A
N1378      N1379   1.322       .  A
N1378     Mn1396   2.208       .  S
N1379      C1386   1.354       .  A
N1380      N1978   1.317       .  A
N1380      N1381   1.322       .  A
N1380     Mn1384   2.211       .  S
N1381      C1986   1.354       .  A
N1382      N1976   1.315   1_545  A
N1382      N1383   1.320       .  A
N1382     Mn1396   2.199       .  S
N1383      C1985   1.353       .  A
Mn1384    Cl1397   2.543       .  S
C1385      C1477   1.480       .  S
C1385      N1983   1.353       .  A
C1386      C1753   1.486       .  S
C1386      N1981   1.354   1_545  A
N1387      N1388   1.320       .  A
N1387     Mn1395   2.201       .  S
N1389      N1390   1.320       .  A
N1389     Mn1396   2.192       .  S
N1391      N1392   1.319       .  A
N1391     Mn1395   2.198       .  S
N1392      C1399   1.355       .  A
N1393      N1394   1.322       .  A
N1393     Mn1396   2.217       .  S
N1394      C1398   1.354   1_655  A
Mn1396    Cl1997   2.552   1_645  S
Cl1397    Mn1996   2.552       .  S
C1398      C1432   1.471       .  S
C1399      C1441   1.485       .  S
C1400      C1401   1.407       .  A
C1400      C1405   1.399       .  A
C1400      C1525   1.474       .  S
C1401      C1402   1.399       .  A
C1401      C1456   1.475       .  S
C1402      C1403   1.399       .  A
C1402      H1407   1.085       .  S
C1403      C1404   1.406       .  A
C1403      C1444   1.473       .  S
C1404      C1405   1.401       .  A
C1404      C1516   1.476       .  S
C1405      H1406   1.085       .  S
C1408      C1409   1.408   1_565  A
C1408      C1413   1.402       .  A
C1408      C1504   1.475       .  S
C1409      C1410   1.401   1_545  A
C1409      C1480   1.485       .  S
C1410      C1411   1.404       .  A
C1410      H1415   1.085   1_565  S
C1411      C1412   1.411       .  A
C1411      C1468   1.478       .  S
C1412      C1413   1.400       .  A
C1412      C1489   1.483       .  S
C1413      H1414   1.085       .  S
C1416      C1540   1.582       .  S
C1417      C1422   1.403   1_655  A
C1418      C1419   1.405       .  A
C1418      H1423   1.085       .  S
C1419      C1426   1.442       .  S
C1420      C1421   1.423   1_655  A
C1421      C1422   1.401       .  A
C1421      H1424   1.079       .  S
C1422      C1425   1.445       .  S
C1425      N1427   1.157       .  T
C1426      N1428   1.157       .  T
C1429      C1430   1.425       .  A
C1430      C1431   1.401       .  A
C1430      H1435   1.083       .  S
C1431      C1432   1.400       .  A
C1431      C1438   1.444       .  S
C1433      C1434   1.402       .  A
C1433      H1436   1.086       .  S
C1434      C1437   1.441       .  S
C1437      N1439   1.158       .  T
C1438      N1440   1.157       .  T
C1441      C1442   1.405       .  A
C1442      C1443   1.396       .  A
C1442      H1447   1.083       .  S
C1443      C1444   1.405       .  A
C1443      C1450   1.444       .  S
C1445      C1446   1.403       .  A
C1445      H1448   1.085       .  S
C1446      C1449   1.444       .  S
C1449      N1451   1.157       .  T
C1450      N1452   1.157       .  T
C1453      C1454   1.408       .  A
C1454      C1455   1.399       .  A
C1454      H1459   1.084       .  S
C1455      C1456   1.407       .  A
C1455      C1462   1.443       .  S
C1457      C1458   1.398       .  A
C1457      H1460   1.085       .  S
C1458      C1461   1.444       .  S
C1461      N1463   1.157       .  T
C1462      N1464   1.157       .  T
C1465      C1466   1.403       .  A
C1465      C2070   1.418       .  A
C1466      C1467   1.397       .  A
C1466      H1471   1.084       .  S
C1467      C2068   1.411       .  A
C1467      C1474   1.445       .  S
C1468      C2067   1.410       .  A
C1468      C1469   1.400   1_565  A
C1469      C1470   1.403       .  A
C1469      H1472   1.085       .  S
C1470      C2065   1.416   1_545  A
C1470      C1473   1.441       .  S
C1473      N1475   1.156       .  T
C1474      N1476   1.157       .  T
C1477      C2078   1.403       .  A
C1477      C1482   1.414       .  A
C1478      C2077   1.404       .  A
C1478      C1479   1.399       .  A
C1478      H1483   1.084       .  S
C1479      C1480   1.412       .  A
C1479      C1486   1.444       .  S
C1480      C2081   1.403   1_545  A
C1481      C2080   1.402       .  A
C1481      C1482   1.401       .  A
C1481      H1484   1.085       .  S
C1482      C1485   1.442       .  S
C1485      N1487   1.157       .  T
C1486      N1488   1.157       .  T
C1489      C1490   1.401   1_565  A
C1489      C2094   1.410       .  A
C1490      C1491   1.398       .  A
C1490      H1495   1.086       .  S
C1491      C1492   1.417   1_545  A
C1491      C1498   1.444       .  S
C1492      C2093   1.409       .  A
C1493      C2092   1.406       .  A
C1493      C1494   1.403       .  A
C1493      H1496   1.083       .  S
C1494      C2089   1.409       .  A
C1494      C1497   1.442       .  S
C1497      N1499   1.157       .  T
C1498      N1500   1.157       .  T
C1501      C2102   1.404       .  A
C1501      C1506   1.416   1_565  A
C1502      C2101   1.404       .  A
C1502      C1503   1.394       .  A
C1502      H1507   1.084       .  S
C1503      C2104   1.409       .  A
C1503      C1510   1.445       .  S
C1504      C2103   1.408       .  A
C1504      C1505   1.400   1_565  A
C1505      C1506   1.401       .  A
C1505      H1508   1.085       .  S
C1506      C1509   1.443       .  S
C1509      N1511   1.157       .  T
C1510      N1512   1.157       .  T
C1513      C1518   1.415       .  A
C1514      C1515   1.396       .  A
C1514      H1519   1.084       .  S
C1515      C1522   1.445       .  S
C1516      C1517   1.400       .  A
C1517      C1518   1.403       .  A
C1517      H1520   1.084       .  S
C1518      C1521   1.440       .  S
C1521      N1523   1.156       .  T
C1522      N1524   1.157       .  T
C1525      C1526   1.398       .  A
C1526      C1527   1.398       .  A
C1526      H1531   1.084       .  S
C1527      C1528   1.417       .  A
C1527      C1534   1.443       .  S
C1529      C1530   1.400       .  A
C1529      H1532   1.084       .  S
C1530      C1533   1.444       .  S
C1533      N1535   1.157       .  T
C1534      N1536   1.157       .  T
C1537      C1538   1.392       .  A
C1537      C1542   1.405       .  A
C1538      C1539   1.403       .  A
C1538      H1543   1.086       .  S
C1539      C1540   1.435       .  A
C1539      C1546   1.442       .  S
C1540      C1541   1.420       .  A
C1541      C1542   1.403       .  A
C1541      H1544   1.081       .  S
C1542      C1545   1.445       .  S
C1545      N1547   1.157       .  T
C1546      N1548   1.157       .  T
C1549      C1550   1.420       .  A
C1549      C1554   1.440       .  A
C1550      C1551   1.402       .  A
C1550      H1555   1.084       .  S
C1551      C1552   1.407       .  A
C1551      C1558   1.444       .  S
C1552      C1553   1.393       .  A
C1553      C1554   1.400       .  A
C1553      H1556   1.086       .  S
C1554      C1557   1.443       .  S
C1557      N1559   1.158       .  T
C1558      N1560   1.157       .  T
C1561      C1562   1.403       .  A
C1561      C1566   1.414       .  A
C1562      C1563   1.394       .  A
C1562      H1567   1.085       .  S
C1563      C1564   1.411       .  A
C1563      C1570   1.445       .  S
C1564      C1565   1.403       .  A
C1565      C1566   1.402       .  A
C1565      H1568   1.085       .  S
C1566      C1569   1.443       .  S
C1569      N1571   1.157       .  T
C1570      N1572   1.157       .  T
C1573      C1574   1.399       .  A
C1573      C1578   1.409       .  A
C1574      C1575   1.396       .  A
C1574      H1579   1.086       .  S
C1575      C1576   1.418       .  A
C1575      C1582   1.445       .  S
C1576      C1577   1.405       .  A
C1577      C1578   1.402       .  A
C1577      H1580   1.082       .  S
C1578      C1581   1.443       .  S
C1581      N1583   1.157       .  T
C1582      N1584   1.158       .  T
C1585      C1586   1.400       .  A
C1585      C1590   1.408       .  A
C1586      C1587   1.396       .  A
C1586      H1591   1.085       .  S
C1587      C1588   1.416       .  A
C1587      C1594   1.444       .  S
C1588      C1589   1.407       .  A
C1589      C1590   1.400       .  A
C1589      H1592   1.085       .  S
C1590      C1593   1.443       .  S
C1593      N1595   1.157       .  T
C1594      N1596   1.157       .  T
C1597      C1598   1.398       .  A
C1597      C1602   1.408       .  A
C1598      C1599   1.398       .  A
C1598      H1603   1.084       .  S
C1599      C1600   1.420       .  A
C1599      C1606   1.444       .  S
C1600      C1601   1.407       .  A
C1601      C1602   1.403       .  A
C1601      H1604   1.083       .  S
C1602      C1605   1.444       .  S
C1605      N1607   1.157       .  T
C1606      N1608   1.158       .  T
C1609      C1610   1.414       .  A
C1610      C1611   1.404       .  A
C1610      H1615   1.082       .  S
C1611      C1612   1.413       .  A
C1611      C1618   1.444       .  S
C1613      C1614   1.404       .  A
C1613      H1616   1.085       .  S
C1614      C1617   1.444       .  S
C1617      N1619   1.158       .  T
C1618      N1620   1.157       .  T
C1621      C1626   1.436   1_655  A
C1622      C1623   1.401       .  A
C1622      H1627   1.084       .  S
C1623      C1630   1.443       .  S
C1624      C1625   1.396   1_655  A
C1625      C1626   1.405       .  A
C1625      H1628   1.086       .  S
C1626      C1629   1.441       .  S
C1629      N1631   1.158       .  T
C1630      N1632   1.157       .  T
C1633      C1634   1.420       .  A
C1633      C1638   1.435       .  A
C1634      C1635   1.406       .  A
C1634      H1639   1.080       .  S
C1635      C1636   1.406       .  A
C1635      C1642   1.444       .  S
C1636      C1637   1.392       .  A
C1637      C1638   1.403       .  A
C1637      H1640   1.086       .  S
C1638      C1641   1.441       .  S
C1641      N1643   1.157       .  T
C1642      N1644   1.157       .  T
C1645      C1646   1.417       .  A
C1645      C1650   1.438       .  A
C1646      C1647   1.407       .  A
C1646      H1651   1.083       .  S
C1647      C1648   1.412       .  A
C1647      C1654   1.444       .  S
C1648      C1649   1.397       .  A
C1649      C1650   1.407       .  A
C1649      H1652   1.085       .  S
C1650      C1653   1.445       .  S
C1653      N1655   1.158       .  T
C1654      N1656   1.157       .  T
C1657      C1658   1.398       .  A
C1657      C2262   1.408   1_545  A
C1658      C1659   1.402       .  A
C1658      H1663   1.086       .  S
C1659      C1660   1.433       .  A
C1659      C1666   1.442       .  S
C1660      C2261   1.421   1_545  A
C1661      C2260   1.421       .  A
C1661      C1662   1.403       .  A
C1661      H1664   1.084       .  S
C1662      C2257   1.408       .  A
C1662      C1665   1.444       .  S
C1665      N1667   1.157       .  T
C1666      N1668   1.158       .  T
C1669      C2270   1.423   1_545  A
C1669      C1674   1.428       .  A
C1670      C2269   1.423       .  A
C1670      C1671   1.402       .  A
C1670      H1675   1.081       .  S
C1671      C2272   1.409       .  A
C1671      C1678   1.445       .  S
C1672      C2271   1.409       .  A
C1672      C1673   1.400   1_565  A
C1673      C1674   1.401       .  A
C1673      H1676   1.085       .  S
C1674      C1677   1.442       .  S
C1677      N1679   1.157       .  T
C1678      N1680   1.158       .  T
C1681      C1682   1.422       .  A
C1681      C1686   1.430       .  A
C1682      C1683   1.403       .  A
C1682      H1687   1.078       .  S
C1683      C1684   1.408       .  A
C1683      C1690   1.444       .  S
C1684      C1685   1.401       .  A
C1685      C1686   1.404       .  A
C1685      H1688   1.085       .  S
C1686      C1689   1.442       .  S
C1689      N1691   1.157       .  T
C1690      N1692   1.157       .  T
C1693      C1810   1.576       .  S
C1693      C1694   1.419       .  A
C1693      C1698   1.435       .  A
C1694      C1695   1.399       .  A
C1694      H1699   1.084       .  S
C1695      C1696   1.409       .  A
C1695      C1702   1.444       .  S
C1696      C1697   1.398       .  A
C1697      C1698   1.401       .  A
C1697      H1700   1.086       .  S
C1698      C1701   1.443       .  S
C1701      N1703   1.158       .  T
C1702      N1704   1.157       .  T
C1705      C1706   1.398       .  A
C1705      C1710   1.408       .  A
C1706      C1707   1.400       .  A
C1706      H1711   1.085       .  S
C1707      C1708   1.419       .  A
C1707      C1714   1.443       .  S
C1708      C1709   1.406       .  A
C1709      C1710   1.398       .  A
C1709      H1712   1.084       .  S
C1710      C1713   1.444       .  S
C1713      N1715   1.157       .  T
C1714      N1716   1.157       .  T
C1717      C1718   1.406       .  A
C1717      C1722   1.415       .  A
C1718      C1719   1.396       .  A
C1718      H1723   1.084       .  S
C1719      C1720   1.407       .  A
C1719      C1726   1.444       .  S
C1720      C1721   1.401       .  A
C1721      C1722   1.400       .  A
C1721      H1724   1.085       .  S
C1722      C1725   1.441       .  S
C1725      N1727   1.156       .  T
C1726      N1728   1.157       .  T
C1729      C1730   1.404       .  A
C1729      C1734   1.413       .  A
C1730      C1731   1.398       .  A
C1730      H1735   1.085       .  S
C1731      C1732   1.413       .  A
C1731      C1738   1.445       .  S
C1732      C1733   1.403       .  A
C1733      C1734   1.402       .  A
C1733      H1736   1.084       .  S
C1734      C1737   1.443       .  S
C1737      N1739   1.157       .  T
C1738      N1740   1.157       .  T
C1741      C1742   1.398       .  A
C1741      C1746   1.407       .  A
C1742      C1743   1.399       .  A
C1742      H1747   1.085       .  S
C1743      C1744   1.420       .  A
C1743      C1750   1.444       .  S
C1744      C1745   1.406       .  A
C1745      C1746   1.398       .  A
C1745      H1748   1.084       .  S
C1746      C1749   1.444       .  S
C1749      N1751   1.157       .  T
C1750      N1752   1.157       .  T
C1753      C1754   1.400       .  A
C1753      C2358   1.405   1_545  A
C1754      C1755   1.404       .  A
C1754      H1759   1.085       .  S
C1755      C1756   1.430       .  A
C1755      C1762   1.444       .  S
C1756      C1801   1.583       .  S
C1756      C2357   1.423   1_545  A
C1757      C2356   1.423       .  A
C1757      C1758   1.402       .  A
C1757      H1760   1.079       .  S
C1758      C2353   1.406       .  A
C1758      C1761   1.445       .  S
C1761      N1763   1.157       .  T
C1762      N1764   1.157       .  T
C1765      C1766   1.393       .  A
C1765      C2370   1.403       .  A
C1766      C1767   1.404       .  A
C1766      H1771   1.086   1_565  S
C1767      C1768   1.435       .  A
C1767      C1774   1.442   1_565  S
C1768      C1801   1.580   1_565  S
C1768      C2369   1.421       .  A
C1769      C2368   1.421       .  A
C1769      C1770   1.402       .  A
C1769      H1772   1.080       .  S
C1770      C2365   1.403       .  A
C1770      C1773   1.444       .  S
C1773      N1775   1.157       .  T
C1774      N1776   1.157       .  T
C1777      C1801   1.572       .  S
C1777      C1778   1.419       .  A
C1777      C1782   1.432       .  A
C1778      C1779   1.401       .  A
C1778      H1783   1.078       .  S
C1779      C1780   1.406       .  A
C1779      C1786   1.445       .  S
C1780      C1781   1.399       .  A
C1781      C1782   1.403       .  A
C1781      H1784   1.085       .  S
C1782      C1785   1.445       .  S
C1785      N1787   1.158       .  T
C1786      N1788   1.157       .  T
C1789      C1790   1.423       .  A
C1789      C1794   1.435       .  A
C1790      C1791   1.398       .  A
C1790      H1795   1.084       .  S
C1791      C1792   1.398       .  A
C1791      C1798   1.444       .  S
C1792      C1793   1.395       .  A
C1793      C1794   1.402       .  A
C1793      H1796   1.086       .  S
C1794      C1797   1.443       .  S
C1797      N1799   1.158       .  T
C1798      N1800   1.157       .  T
C1801      C2389   1.571   1_545  S
C1802      C1803   1.405   1_554  A
C1802      C2320   1.477       .  S
C1803      C2341   1.473       .  S
C1804      C1805   1.402       .  A
C1804      H1809   1.085       .  S
C1805      C1806   1.412   1_556  A
C1805      C2332   1.483       .  S
C1806      C1807   1.401       .  A
C1806      C2305   1.477       .  S
C1807      H1808   1.085       .  S
C1810      C2260   1.570       .  S
C1810      C2269   1.582       .  S
C1810      C2281   1.577       .  S
C1811      C2233   1.576       .  S
C1812      C1813   1.409   1_556  A
C1812      C2197   1.479       .  S
C1813      C2173   1.475       .  S
C1814      C1815   1.399       .  A
C1814      H1819   1.085       .  S
C1815      C1816   1.408   1_554  A
C1815      C2164   1.481       .  S
C1816      C1817   1.402       .  A
C1816      C2185   1.476       .  S
C1817      H1818   1.085       .  S
N1820      N1821   1.317       .  A
N1820      N1826   1.313       .  A
N1820     Mn1849   2.183       .  S
N1821      C1828   1.350       .  A
N1822      N1824   1.318       .  A
N1822      N1823   1.319       .  A
N1822     Mn1838   2.201       .  S
N1823      C1829   1.352       .  A
N1824      N1825   1.321       .  A
N1824     Mn1849   2.208       .  S
N1825      C1829   1.354       .  A
N1826      N1827   1.323       .  A
N1826     Mn1838   2.215       .  S
N1827      C1828   1.358       .  A
C1828      C2200   1.489       .  S
C1829      C2296   1.485       .  S
N1830      N1836   1.319       .  A
N1830      N1831   1.322       .  A
N1830     Mn1860   2.214       .  S
N1831      C1839   1.353       .  A
N1832      N1833   1.318       .  A
N1832      N1834   1.313       .  A
N1832     Mn1838   2.185       .  S
N1833      C1840   1.351       .  A
N1834      N1835   1.320       .  A
N1834     Mn1860   2.201       .  S
N1835      C1840   1.356       .  A
N1836      N1837   1.325       .  A
N1836     Mn1838   2.233       .  S
N1837      C1839   1.358       .  A
Mn1838    Cl1862   2.546       .  S
C1839      C2248   1.494       .  S
C1840      C2344   1.486       .  S
N1841      N1842   1.322       .  A
N1841      N1847   1.319       .  A
N1841     Mn1849   2.204       .  S
N1842      C1850   1.351       .  A
N1843      N1845   1.313       .  A
N1843      N1844   1.321       .  A
N1843     Mn1861   2.202       .  S
N1844      C1851   1.355       .  A
N1845      N1846   1.320       .  A
N1845     Mn1849   2.192       .  S
N1846      C1851   1.352       .  A
N1847      N1848   1.323       .  A
N1847     Mn1861   2.221       .  S
N1848      C1850   1.353       .  A
Mn1849    Cl1862   2.551       .  S
C1850      C2236   1.477       .  S
C1851      C2329   1.483       .  S
N1852      N1853   1.319       .  A
N1852      N1858   1.314       .  A
N1852     Mn1860   2.192       .  S
N1853      C1863   1.353       .  A
N1854      N1855   1.322       .  A
N1854      N1856   1.319       .  A
N1854     Mn1861   2.213       .  S
N1855      C1864   1.354       .  A
N1856      N1857   1.320       .  A
N1856     Mn1860   2.213       .  S
N1857      C1864   1.354       .  A
N1858      N1859   1.319       .  A
N1858     Mn1861   2.194       .  S
N1859      C1863   1.352       .  A
Mn1860    Cl1862   2.549       .  S
Mn1861    Cl1862   2.546       .  S
C1863      C2188   1.483       .  S
C1864      C2284   1.490       .  S
N1865      N1866   1.321       .  A
N1865      N1871   1.318       .  A
N1865     Mn1894   2.199       .  S
N1866      C1873   1.350       .  A
N1867      N1869   1.314       .  A
N1867      N1868   1.319       .  A
N1867     Mn1883   2.196       .  S
N1868      C1874   1.353       .  A
N1869      N1870   1.320       .  A
N1869     Mn1894   2.199       .  S
N1870      C1874   1.354       .  A
N1871      N1872   1.323       .  A
N1871     Mn1883   2.224       .  S
N1872      C1873   1.355       .  A
C1873      C2137   1.478       .  S
C1874      C2308   1.486       .  S
N1875      N1881   1.314       .  A
N1875      N1876   1.315       .  A
N1875     Mn1905   2.177       .  S
N1876      C1884   1.348       .  A
N1877      N1878   1.319       .  A
N1877      N1879   1.319       .  A
N1877     Mn1883   2.200       .  S
N1878      C1885   1.349       .  A
N1879      N1880   1.321       .  A
N1879     Mn1905   2.214       .  S
N1880      C1885   1.353       .  A
N1881      N1882   1.323       .  A
N1881     Mn1883   2.212       .  S
N1882      C1884   1.358       .  A
Mn1883    Cl1907   2.546       .  S
C1884      C2176   1.483       .  S
C1885      C2392   1.468       .  S
N1886      N1887   1.321       .  A
N1886      N1892   1.313       .  A
N1886     Mn1894   2.194       .  S
N1887      C1895   1.354       .  A
N1888      N1890   1.317       .  A
N1888      N1889   1.321       .  A
N1888     Mn1906   2.201       .  S
N1889      C1896   1.354       .  A
N1890      N1891   1.320       .  A
N1890     Mn1894   2.214       .  S
N1891      C1896   1.354       .  A
N1892      N1893   1.318       .  A
N1892     Mn1906   2.189       .  S
N1893      C1895   1.352       .  A
Mn1894    Cl1907   2.546       .  S
C1895      C2161   1.479       .  S
C1896      C2380   1.484       .  S
N1897      N1898   1.322       .  A
N1897      N1903   1.317       .  A
N1897     Mn1905   2.202       .  S
N1898      C1908   1.353       .  A
N1899      N1900   1.316       .  A
N1899      N1901   1.313       .  A
N1899     Mn1906   2.183       .  S
N1900      C1909   1.351       .  A
N1901      N1902   1.323       .  A
N1901     Mn1905   2.207       .  S
N1902      C1909   1.357       .  A
N1903      N1904   1.320       .  A
N1903     Mn1906   2.208       .  S
N1904      C1908   1.354       .  A
Mn1905    Cl1907   2.547       .  S
Mn1906    Cl1907   2.543       .  S
C1908      C2152   1.485       .  S
C1909      C2317   1.484       .  S
N1910      N1911   1.319       .  A
N1910     Mn1939   2.198       .  S
N1911      C1918   1.351       .  A
N1912      N1913   1.323       .  A
N1912     Mn1928   2.206       .  S
N1913      C1919   1.356       .  A
N1914      N1915   1.318       .  A
N1914     Mn1939   2.185       .  S
N1916      N1917   1.324       .  A
N1916     Mn1928   2.230       .  S
C1918      C2212   1.490       .  S
C1919      C2113   1.486       .  S
N1920      N1921   1.323       .  A
N1920     Mn1950   2.208       .  S
N1922      N1923   1.320       .  A
N1922     Mn1928   2.211       .  S
N1923      C1930   1.354       .  A
N1924      N1925   1.321       .  A
N1924     Mn1950   2.205       .  S
N1926      N1927   1.318       .  A
N1926     Mn1928   2.196       .  S
N1927      C1929   1.352       .  A
C1929      C2092   1.487       .  S
C1930      C2272   1.488       .  S
N1931      N1932   1.319       .  A
N1931     Mn1939   2.191       .  S
N1932      C1940   1.353       .  A
N1933      N1934   1.322       .  A
N1933     Mn1951   2.210       .  S
N1935      N1936   1.319       .  A
N1935     Mn1939   2.198       .  S
N1936      C1941   1.351       .  A
N1937      N1938   1.318       .  A
N1937     Mn1951   2.189       .  S
Mn1939    Cl1952   2.538   1_655  S
C1940      C2101   1.478       .  S
C1941      C2257   1.488       .  S
N1942      N1943   1.322       .  A
N1942     Mn1950   2.217       .  S
N1944      N1945   1.320       .  A
N1944     Mn1951   2.190       .  S
N1946      N1947   1.318       .  A
N1946     Mn1950   2.190       .  S
N1947      C1954   1.352       .  A
N1948      N1949   1.322       .  A
N1948     Mn1951   2.213       .  S
N1949      C1953   1.353       .  A
C1953      C2224   1.478       .  S
C1954      C2128   1.485       .  S
N1955      N1956   1.321       .  A
N1955     Mn1984   2.209       .  S
N1956      C1963   1.354       .  A
N1957      N1958   1.320       .  A
N1957     Mn1973   2.200       .  S
N1958      C1964   1.354       .  A
N1959      N1960   1.319       .  A
N1959     Mn1984   2.194       .  S
N1961      N1962   1.321       .  A
N1961     Mn1973   2.215       .  S
C1963      C2017   1.485       .  S
C1964      C2053   1.484       .  S
N1965      N1966   1.320       .  A
N1965     Mn1995   2.192       .  S
N1967      N1968   1.323       .  A
N1967     Mn1973   2.212       .  S
N1969      N1970   1.321       .  A
N1969     Mn1995   2.210       .  S
N1970      C1975   1.352       .  A
N1971      N1972   1.320       .  A
N1971     Mn1973   2.201       .  S
N1972      C1974   1.354       .  A
C1974      C2065   1.485       .  S
C1975      C2365   1.476       .  S
N1976      N1977   1.321       .  A
N1976     Mn1984   2.205       .  S
N1977      C1985   1.354   1_565  A
N1978      N1979   1.322       .  A
N1978     Mn1996   2.212       .  S
N1979      C1986   1.355       .  A
N1980      N1981   1.322       .  A
N1980     Mn1984   2.212       .  S
N1982      N1983   1.319       .  A
N1982     Mn1996   2.195       .  S
Mn1984    Cl1997   2.545   1_655  S
C1985      C2077   1.482       .  S
C1986      C2353   1.487       .  S
N1987      N1988   1.318       .  A
N1987     Mn1995   2.193       .  S
N1989      N1990   1.320       .  A
N1989     Mn1996   2.194       .  S
N1991      N1992   1.320       .  A
N1991     Mn1995   2.203       .  S
N1992      C1999   1.355       .  A
N1993      N1994   1.322       .  A
N1993     Mn1996   2.215       .  S
N1994      C1998   1.354   1_655  A
C1998      C2032   1.469       .  S
C1999      C2041   1.487       .  S
C2000      C2001   1.410       .  A
C2000      C2005   1.400       .  A
C2000      C2125   1.475       .  S
C2001      C2002   1.402       .  A
C2001      C2056   1.481       .  S
C2002      C2003   1.400       .  A
C2002      H2007   1.085       .  S
C2003      C2004   1.406       .  A
C2003      C2044   1.476       .  S
C2004      C2005   1.400       .  A
C2004      C2116   1.475       .  S
C2005      H2006   1.085       .  S
C2008      C2009   1.407       .  A
C2008      C2013   1.401       .  A
C2008      C2104   1.476       .  S
C2009      C2010   1.400       .  A
C2009      C2080   1.481       .  S
C2010      C2011   1.402       .  A
C2010      H2015   1.085       .  S
C2011      C2012   1.412       .  A
C2011      C2068   1.478       .  S
C2012      C2013   1.400       .  A
C2012      C2089   1.482       .  S
C2013      H2014   1.085       .  S
C2016      C2140   1.583       .  S
C2017      C2022   1.404   1_655  A
C2018      C2019   1.403       .  A
C2018      H2023   1.085       .  S
C2019      C2026   1.442       .  S
C2020      C2021   1.422   1_655  A
C2021      C2022   1.401       .  A
C2021      H2024   1.079       .  S
C2022      C2025   1.445       .  S
C2025      N2027   1.157       .  T
C2026      N2028   1.157       .  T
C2029      C2030   1.425       .  A
C2030      C2031   1.401       .  A
C2030      H2035   1.083       .  S
C2031      C2032   1.399       .  A
C2031      C2038   1.444       .  S
C2033      C2034   1.401       .  A
C2033      H2036   1.086       .  S
C2034      C2037   1.442       .  S
C2037      N2039   1.158       .  T
C2038      N2040   1.157       .  T
C2041      C2042   1.405       .  A
C2042      C2043   1.396       .  A
C2042      H2047   1.083       .  S
C2043      C2044   1.406       .  A
C2043      C2050   1.444       .  S
C2045      C2046   1.403       .  A
C2045      H2048   1.085       .  S
C2046      C2049   1.444       .  S
C2049      N2051   1.157       .  T
C2050      N2052   1.157       .  T
C2053      C2054   1.406       .  A
C2054      C2055   1.401       .  A
C2054      H2059   1.085       .  S
C2055      C2056   1.410       .  A
C2055      C2062   1.443       .  S
C2057      C2058   1.398       .  A
C2057      H2060   1.085       .  S
C2058      C2061   1.444       .  S
C2061      N2063   1.157       .  T
C2062      N2064   1.157       .  T
C2065      C2066   1.404       .  A
C2066      C2067   1.397       .  A
C2066      H2071   1.084       .  S
C2067      C2074   1.445       .  S
C2068      C2069   1.400       .  A
C2069      C2070   1.403       .  A
C2069      H2072   1.085       .  S
C2070      C2073   1.442       .  S
C2073      N2075   1.157       .  T
C2074      N2076   1.157       .  T
C2077      C2082   1.413   1_545  A
C2078      C2079   1.397       .  A
C2078      H2083   1.084       .  S
C2079      C2080   1.411       .  A
C2079      C2086   1.444       .  S
C2081      C2082   1.401       .  A
C2081      H2084   1.084       .  S
C2082      C2085   1.442       .  S
C2085      N2087   1.157       .  T
C2086      N2088   1.157       .  T
C2089      C2090   1.402       .  A
C2090      C2091   1.399       .  A
C2090      H2095   1.085       .  S
C2091      C2092   1.416       .  A
C2091      C2098   1.445       .  S
C2093      C2094   1.407       .  A
C2093      H2096   1.084       .  S
C2094      C2097   1.443       .  S
C2097      N2099   1.157       .  T
C2098      N2100   1.158       .  T
C2101      C2106   1.415       .  A
C2102      C2103   1.394       .  A
C2102      H2107   1.084       .  S
C2103      C2110   1.445       .  S
C2104      C2105   1.401       .  A
C2105      C2106   1.401       .  A
C2105      H2108   1.085       .  S
C2106      C2109   1.443       .  S
C2109      N2111   1.157       .  T
C2110      N2112   1.157       .  T
C2113      C2118   1.416       .  A
C2114      C2115   1.396       .  A
C2114      H2119   1.084       .  S
C2115      C2122   1.444       .  S
C2116      C2117   1.401       .  A
C2117      C2118   1.403       .  A
C2117      H2120   1.085       .  S
C2118      C2121   1.441       .  S
C2121      N2123   1.156       .  T
C2122      N2124   1.157       .  T
C2125      C2126   1.399       .  A
C2126      C2127   1.396       .  A
C2126      H2131   1.085       .  S
C2127      C2128   1.417       .  A
C2127      C2134   1.444       .  S
C2129      C2130   1.400       .  A
C2129      H2132   1.084       .  S
C2130      C2133   1.444       .  S
C2133      N2135   1.157       .  T
C2134      N2136   1.158       .  T
C2137      C2138   1.393       .  A
C2137      C2142   1.405       .  A
C2138      C2139   1.404       .  A
C2138      H2143   1.085       .  S
C2139      C2140   1.435       .  A
C2139      C2146   1.442       .  S
C2140      C2141   1.421       .  A
C2141      C2142   1.404       .  A
C2141      H2144   1.081       .  S
C2142      C2145   1.445       .  S
C2145      N2147   1.157       .  T
C2146      N2148   1.157       .  T
C2149      C2150   1.420       .  A
C2149      C2154   1.440       .  A
C2150      C2151   1.402       .  A
C2150      H2155   1.084       .  S
C2151      C2152   1.408       .  A
C2151      C2158   1.444       .  S
C2152      C2153   1.394       .  A
C2153      C2154   1.401       .  A
C2153      H2156   1.086       .  S
C2154      C2157   1.443       .  S
C2157      N2159   1.158       .  T
C2158      N2160   1.157       .  T
C2161      C2162   1.403       .  A
C2161      C2166   1.414       .  A
C2162      C2163   1.394       .  A
C2162      H2167   1.085       .  S
C2163      C2164   1.411       .  A
C2163      C2170   1.445       .  S
C2164      C2165   1.403       .  A
C2165      C2166   1.403       .  A
C2165      H2168   1.084       .  S
C2166      C2169   1.443       .  S
C2169      N2171   1.157       .  T
C2170      N2172   1.157       .  T
C2173      C2174   1.400       .  A
C2173      C2178   1.409       .  A
C2174      C2175   1.395       .  A
C2174      H2179   1.086       .  S
C2175      C2176   1.418       .  A
C2175      C2182   1.445       .  S
C2176      C2177   1.405       .  A
C2177      C2178   1.401       .  A
C2177      H2180   1.082       .  S
C2178      C2181   1.443       .  S
C2181      N2183   1.157       .  T
C2182      N2184   1.158       .  T
C2185      C2186   1.400       .  A
C2185      C2190   1.407       .  A
C2186      C2187   1.397       .  A
C2186      H2191   1.085       .  S
C2187      C2188   1.417       .  A
C2187      C2194   1.444       .  S
C2188      C2189   1.407       .  A
C2189      C2190   1.399       .  A
C2189      H2192   1.085       .  S
C2190      C2193   1.443       .  S
C2193      N2195   1.157       .  T
C2194      N2196   1.158       .  T
C2197      C2198   1.399       .  A
C2197      C2202   1.408       .  A
C2198      C2199   1.398       .  A
C2198      H2203   1.085       .  S
C2199      C2200   1.419       .  A
C2199      C2206   1.444       .  S
C2200      C2201   1.407       .  A
C2201      C2202   1.402       .  A
C2201      H2204   1.083       .  S
C2202      C2205   1.443       .  S
C2205      N2207   1.157       .  T
C2206      N2208   1.158       .  T
C2209      C2210   1.415       .  A
C2210      C2211   1.405       .  A
C2210      H2215   1.082       .  S
C2211      C2212   1.413       .  A
C2211      C2218   1.444       .  S
C2213      C2214   1.404       .  A
C2213      H2216   1.085       .  S
C2214      C2217   1.444       .  S
C2217      N2219   1.158       .  T
C2218      N2220   1.157       .  T
C2221      C2226   1.437   1_655  A
C2222      C2223   1.402       .  A
C2222      H2227   1.084       .  S
C2223      C2230   1.443       .  S
C2224      C2225   1.396   1_655  A
C2225      C2226   1.406       .  A
C2225      H2228   1.086       .  S
C2226      C2229   1.441       .  S
C2229      N2231   1.158       .  T
C2230      N2232   1.157       .  T
C2233      C2234   1.420       .  A
C2233      C2238   1.435       .  A
C2234      C2235   1.405       .  A
C2234      H2239   1.080       .  S
C2235      C2236   1.406       .  A
C2235      C2242   1.444       .  S
C2236      C2237   1.391       .  A
C2237      C2238   1.402       .  A
C2237      H2240   1.086       .  S
C2238      C2241   1.441       .  S
C2241      N2243   1.157       .  T
C2242      N2244   1.157       .  T
C2245      C2246   1.417       .  A
C2245      C2250   1.438       .  A
C2246      C2247   1.406       .  A
C2246      H2251   1.083       .  S
C2247      C2248   1.411       .  A
C2247      C2254   1.444       .  S
C2248      C2249   1.397       .  A
C2249      C2250   1.408       .  A
C2249      H2252   1.085       .  S
C2250      C2253   1.445       .  S
C2253      N2255   1.158       .  T
C2254      N2256   1.157       .  T
C2257      C2258   1.400       .  A
C2258      C2259   1.403       .  A
C2258      H2263   1.086       .  S
C2259      C2260   1.433       .  A
C2259      C2266   1.442       .  S
C2261      C2262   1.401       .  A
C2261      H2264   1.084       .  S
C2262      C2265   1.444       .  S
C2265      N2267   1.157       .  T
C2266      N2268   1.158       .  T
C2269      C2274   1.428       .  A
C2270      C2271   1.402       .  A
C2270      H2275   1.080       .  S
C2271      C2278   1.445       .  S
C2272      C2273   1.400       .  A
C2273      C2274   1.400       .  A
C2273      H2276   1.085       .  S
C2274      C2277   1.442       .  S
C2277      N2279   1.157       .  T
C2278      N2280   1.158       .  T
C2281      C2282   1.421       .  A
C2281      C2286   1.429       .  A
C2282      C2283   1.402       .  A
C2282      H2287   1.079       .  S
C2283      C2284   1.408       .  A
C2283      C2290   1.445       .  S
C2284      C2285   1.401       .  A
C2285      C2286   1.403       .  A
C2285      H2288   1.085       .  S
C2286      C2289   1.442       .  S
C2289      N2291   1.157       .  T
C2290      N2292   1.157       .  T
C2293      C2294   1.419       .  A
C2293      C2298   1.436       .  A
C2294      C2295   1.399       .  A
C2294      H2299   1.084       .  S
C2295      C2296   1.409       .  A
C2295      C2302   1.444       .  S
C2296      C2297   1.398       .  A
C2297      C2298   1.402       .  A
C2297      H2300   1.086       .  S
C2298      C2301   1.444       .  S
C2301      N2303   1.158       .  T
C2302      N2304   1.157       .  T
C2305      C2306   1.399       .  A
C2305      C2310   1.408       .  A
C2306      C2307   1.400       .  A
C2306      H2311   1.085       .  S
C2307      C2308   1.418       .  A
C2307      C2314   1.442       .  S
C2308      C2309   1.406       .  A
C2309      C2310   1.397       .  A
C2309      H2312   1.084       .  S
C2310      C2313   1.444       .  S
C2313      N2315   1.157       .  T
C2314      N2316   1.157       .  T
C2317      C2318   1.407       .  A
C2317      C2322   1.414       .  A
C2318      C2319   1.396       .  A
C2318      H2323   1.084       .  S
C2319      C2320   1.407       .  A
C2319      C2326   1.444       .  S
C2320      C2321   1.401       .  A
C2321      C2322   1.401       .  A
C2321      H2324   1.085       .  S
C2322      C2325   1.441       .  S
C2325      N2327   1.156       .  T
C2326      N2328   1.157       .  T
C2329      C2330   1.404       .  A
C2329      C2334   1.414       .  A
C2330      C2331   1.398       .  A
C2330      H2335   1.085       .  S
C2331      C2332   1.412       .  A
C2331      C2338   1.445       .  S
C2332      C2333   1.402       .  A
C2333      C2334   1.401       .  A
C2333      H2336   1.084       .  S
C2334      C2337   1.442       .  S
C2337      N2339   1.157       .  T
C2338      N2340   1.157       .  T
C2341      C2342   1.399       .  A
C2341      C2346   1.406       .  A
C2342      C2343   1.400       .  A
C2342      H2347   1.085       .  S
C2343      C2344   1.420       .  A
C2343      C2350   1.444       .  S
C2344      C2345   1.407       .  A
C2345      C2346   1.397       .  A
C2345      H2348   1.084       .  S
C2346      C2349   1.444       .  S
C2349      N2351   1.157       .  T
C2350      N2352   1.157       .  T
C2353      C2354   1.400       .  A
C2354      C2355   1.404       .  A
C2354      H2359   1.085       .  S
C2355      C2356   1.430       .  A
C2355      C2362   1.444       .  S
C2357      C2358   1.401       .  A
C2357      H2360   1.079       .  S
C2358      C2361   1.445       .  S
C2361      N2363   1.157       .  T
C2362      N2364   1.157       .  T
C2365      C2366   1.392       .  A
C2366      C2367   1.403       .  A
C2366      H2371   1.085       .  S
C2367      C2368   1.435       .  A
C2367      C2374   1.442       .  S
C2369      C2370   1.403       .  A
C2369      H2372   1.080       .  S
C2370      C2373   1.444       .  S
C2373      N2375   1.157       .  T
C2374      N2376   1.157       .  T
C2377      C2378   1.419       .  A
C2377      C2382   1.432       .  A
C2378      C2379   1.400       .  A
C2378      H2383   1.078       .  S
C2379      C2380   1.406       .  A
C2379      C2386   1.445       .  S
C2380      C2381   1.400       .  A
C2381      C2382   1.403       .  A
C2381      H2384   1.085       .  S
C2382      C2385   1.445       .  S
C2385      N2387   1.158       .  T
C2386      N2388   1.157       .  T
C2389      C2390   1.423       .  A
C2389      C2394   1.435       .  A
C2390      C2391   1.398       .  A
C2390      H2395   1.084       .  S
C2391      C2392   1.398       .  A
C2391      C2398   1.444       .  S
C2392      C2393   1.395       .  A
C2393      C2394   1.402       .  A
C2393      H2396   1.086       .  S
C2394      C2397   1.443       .  S
C2397      N2399   1.158   1_565  T
C2398      N2400   1.157       .  T
