geometry optimzed in LAMMPS
_audit_creation_date              2020-11-30 
_audit_creation_method            'lammps2cif' 
_symmetry_space_group_name_H-M    'P1' 
_symmetry_Int_Tables_number       1 
_symmetry_cell_setting            triclinic 
loop_ 
_symmetry_equiv_pos_as_xyz 
  x,y,z 
_cell_length_a                    37.11863175051579 
_cell_length_b                    38.13536216734656 
_cell_length_c                    28.79710974561094 
_cell_angle_alpha                 91.23570984241412 
_cell_angle_beta                  89.72384563242309 
_cell_angle_gamma                 92.83842194184301 
loop_ 
_atom_site_label 
_atom_site_type_symbol 
_atom_site_fract_x 
_atom_site_fract_y 
_atom_site_fract_z 
_atom_site_charge 
O1          O  0.07467278  0.47506973  0.02366243    -0.80090
O2          O  0.42369197  0.02734971  0.01588970    -0.80120
O3          O  0.00485543  0.06433710  0.06717460    -0.80130
O4          O  0.45500992  0.42327742  0.03517415    -0.80070
O5          O  0.47076048  0.08449659  0.01308854    -0.80190
O6          O  0.01174585  0.44016611  0.04786115    -0.80110
O7          O  0.44999662  0.49193056  0.06373622    -0.80090
O8          O  0.05490669  0.01363293  0.07225182    -0.80130
C9          C  0.07797218  0.99152382  0.06203434     1.09600
C10         C  0.42383844  0.01060166  0.05378682     1.09480
C11         C  0.98552891  0.08808230  0.05287385     1.09620
C12         C  0.98455069  0.41828850  0.05531659     1.09500
O13         O  0.04605812  0.42471171  0.46816423    -0.80100
O14         O  0.49895115  0.05918877  0.42520541    -0.80170
O15         O  0.07859912  0.03107126  0.47860489    -0.80110
O16         O  0.42682634  0.46836524  0.47418509    -0.80090
O17         O  0.45075965  0.00412683  0.42444958    -0.80140
O18         O  0.05118903  0.49074282  0.43354899    -0.80110
O19         O  0.48934626  0.43478933  0.45482807    -0.80060
O20         O  0.03363302  0.08514354  0.47823719    -0.80130
Co21       Co  0.02871806  0.46806552  0.98815303     1.51530
Co22       Co  0.46327706  0.04161432  0.97039779     1.51690
Co23       Co  0.04046456  0.04605544  0.02348805     1.51570
Co24       Co  0.47250090  0.46654793  0.51132550     1.51470
O25         O  0.00126698  0.51161122  0.99843569    -1.42030
C26         C  0.51642148  0.41475853  0.44977765     1.09520
C27         C  0.51932032  0.08479376  0.43823536     1.09610
C28         C  0.07826850  0.51132272  0.44211611     1.09550
C29         C  0.42512572  0.98334694  0.43554562     1.09520
C30         C  0.98774104  0.28711970  0.15335978     0.03170
C31         C  0.98218929  0.25593774  0.12714364    -0.12980
C32         C  0.98008809  0.22349857  0.14919512     0.00670
C33         C  0.98406324  0.22270074  0.19767760    -0.11500
C34         C  0.99375249  0.25321128  0.22423469     0.03160
C35         C  0.99519558  0.28557132  0.20094601    -0.10930
H36         H  0.98053804  0.25711856  0.08973736     0.08760
H37         H  0.98065318  0.19742789  0.21365923     0.06290
H38         H  0.00219346  0.31011396  0.21868211     0.06130
C39         C  0.01219360  0.21633283  0.34467065     0.03170
C40         C  0.01277958  0.24678467  0.37250925    -0.12980
C41         C  0.01029240  0.27957186  0.35239198     0.00670
C42         C  0.00409663  0.28136840  0.30441125    -0.11500
C43         C  0.00219264  0.25101406  0.27544149     0.03160
C44         C  0.00810445  0.21853631  0.29643963    -0.10930
H45         H  0.01407549  0.24467050  0.40984110     0.08760
H46         H  0.00015809  0.30695388  0.29073742     0.06290
H47         H  0.00903313  0.19440604  0.27632756     0.06130
C48         C  0.21885518  0.99071191  0.14965444     0.03170
C49         C  0.25162224  0.99474275  0.12474469    -0.12980
C50         C  0.28493727  0.99580756  0.14836123     0.00670
C51         C  0.28463567  0.99648799  0.19718465    -0.11500
C52         C  0.25227644  0.99634333  0.22333524     0.03160
C53         C  0.21984156  0.99093377  0.19852050    -0.10930
H54         H  0.25136291  0.99709648  0.08741177     0.08760
H55         H  0.31046120  0.99688381  0.21370621     0.06290
H56         H  0.19459778  0.98661375  0.21671963     0.06130
C57         C  0.21922609  0.99950350  0.35098917     0.03170
C58         C  0.25211585  0.99323513  0.37348847    -0.12980
C59         C  0.28519552  0.99563485  0.34916781     0.00670
C60         C  0.28461994  0.99999858  0.30105559    -0.11500
C61         C  0.25226951  0.99969359  0.27598331     0.03160
C62         C  0.22015184  0.00283249  0.30208995    -0.10930
H63         H  0.25249233  0.98641758  0.40946515     0.08760
H64         H  0.31014976  0.00355194  0.28392764     0.06290
H65         H  0.19557319  0.00863603  0.28470599     0.06130
C66         C  0.48545472  0.13145257  0.40452382    -0.05740
C67         C  0.01919320  0.11735761  0.41151243     0.00190
C68         C  0.05082700  0.13525850  0.39511819    -0.08380
C69         C  0.04758187  0.16742366  0.37256389    -0.05760
C70         C  0.01382107  0.18178671  0.36662335     0.00180
C71         C  0.48219322  0.16365280  0.38265799    -0.08290
C72         C  0.44526884  0.17859511  0.37724862     0.62090
H73         H  0.46159012  0.11738612  0.41766781     0.12780
H74         H  0.07136321  0.18184827  0.35987020     0.12790
C75         C  0.08743596  0.11992693  0.40051253     0.62320
F76         F  0.41800281  0.15644617  0.39463503    -0.22850
F77         F  0.43837981  0.18354236  0.33076215    -0.20180
F78         F  0.44422885  0.21044372  0.40097565    -0.19850
F79         F  0.08681599  0.08656537  0.38060272    -0.19900
F80         F  0.09580269  0.11802202  0.44708456    -0.20230
F81         F  0.11443133  0.14015080  0.37912946    -0.22900
C82         C  0.04181974  0.35722585  0.43012661    -0.05740
C83         C  0.01361986  0.38016577  0.42417004     0.00190
C84         C  0.48408665  0.36881688  0.39553482    -0.08380
C85         C  0.48310142  0.33475938  0.37602367    -0.05760
C86         C  0.01161737  0.31246667  0.38101963     0.00180
C87         C  0.04188389  0.32391630  0.40817027    -0.08290
C88         C  0.07469321  0.30192891  0.41316004     0.62090
H89         H  0.06427084  0.36556940  0.45222581     0.12780
H90         H  0.46036277  0.32553019  0.35487552     0.12790
C91         C  0.45540226  0.39317546  0.38170330     0.62320
F92         F  0.10348767  0.32115699  0.43301825    -0.22850
F93         F  0.08578813  0.28979386  0.37006221    -0.20180
F94         F  0.06645600  0.27378208  0.44134235    -0.19850
F95         F  0.47240963  0.42301625  0.36417294    -0.19900
F96         F  0.43420053  0.40152892  0.41952217    -0.20230
F97         F  0.43297225  0.37840554  0.34751570    -0.22900
C98         C  0.00870678  0.16830521  0.13108253    -0.05740
C99         C  0.97998302  0.18962521  0.12244375     0.00190
C100        C  0.45195890  0.17697242  0.09230459    -0.08380
C101        C  0.45461457  0.14358601  0.07067443    -0.05760
C102        C  0.98335975  0.12195274  0.07978427     0.00180
C103        C  0.01065142  0.13451615  0.11147733    -0.08290
C104        C  0.04190232  0.11285629  0.12532298     0.62090
H105        H  0.02970969  0.17847615  0.15440710     0.12780
H106        H  0.43395981  0.13403012  0.04648513     0.12790
C107        C  0.41914088  0.19800684  0.08351481     0.62320
F108        F  0.06533081  0.13085878  0.15577872    -0.22850
F109        F  0.06161809  0.10372551  0.08637312    -0.20180
F110        F  0.02849670  0.08311276  0.14749034    -0.19850
F111        F  0.42865356  0.22619634  0.05597554    -0.19900
F112        F  0.40511923  0.20999023  0.12518777    -0.20230
F113        F  0.39220575  0.17798187  0.06088161    -0.22900
C114        C  0.45445010  0.36844454  0.09661913    -0.05740
C115        C  0.98700921  0.38728307  0.08614781     0.00190
C116        C  0.02001785  0.37405646  0.10201703    -0.08380
C117        C  0.01905569  0.34113406  0.12360267    -0.05760
C118        C  0.98661968  0.32172024  0.13100460     0.00180
C119        C  0.45365145  0.33618990  0.11933216    -0.08290
C120        C  0.41771538  0.31780387  0.13142526     0.62090
H121        H  0.42921955  0.37888316  0.08615996     0.12780
H122        H  0.04377987  0.32993677  0.13463980     0.12790
C123        C  0.05617793  0.39400106  0.09682263     0.62320
F124        F  0.38887499  0.33775990  0.12057115    -0.22850
F125        F  0.41627016  0.31151246  0.17853928    -0.20180
F126        F  0.41377146  0.28629617  0.10707692    -0.19850
F127        F  0.05458381  0.42682186  0.11783295    -0.19900
F128        F  0.06482019  0.39724919  0.05039795    -0.20230
F129        F  0.08383712  0.37709553  0.11765710    -0.22900
C130        C  0.36278084  0.00048816  0.43650276    -0.05740
C131        C  0.39018789  0.98458989  0.41137100     0.00190
C132        C  0.38374548  0.47534986  0.36403613    -0.08380
C133        C  0.34795069  0.47413193  0.34831005    -0.05760
C134        C  0.32102172  0.99220965  0.37232470     0.00180
C135        C  0.33081992  0.00924031  0.41500577    -0.08290
C136        C  0.31367208  0.04186609  0.43343969     0.62090
H137        H  0.36837727  0.01094122  0.47103210     0.12780
H138        H  0.34218080  0.46218259  0.31451894     0.12790
C139        C  0.41242785  0.47044311  0.32717430     0.62320
F140        F  0.29594142  0.05829512  0.39862948    -0.22850
F141        F  0.29064441  0.53323225  0.46948200    -0.20180
F142        F  0.33984008  0.06597422  0.45027253    -0.19850
F143        F  0.41027447  0.43624271  0.31036583    -0.19900
F144        F  0.44680527  0.97882126  0.34274387    -0.20230
F145        F  0.40629402  0.49244423  0.29070655    -0.22900
C146        C  0.14394557  0.52141777  0.43878397    -0.05740
C147        C  0.11280701  0.50853827  0.41566587     0.00190
C148        C  0.11664058  0.99175712  0.37163651    -0.08380
C149        C  0.15180407  0.98764426  0.35369989    -0.05760
C150        C  0.18331561  0.00163520  0.37640597     0.00180
C151        C  0.17860390  0.51944090  0.42002715    -0.08290
C152        C  0.20885131  0.53671672  0.44853195     0.62090
H153        H  0.14121849  0.53288133  0.47322324     0.12780
H154        H  0.15476327  0.97319940  0.32128317     0.12790
C155        C  0.08418999  0.97890745  0.34297348     0.62320
F156        F  0.19661995  0.06045504  0.48141827    -0.22850
F157        F  0.23208204  0.05542385  0.42001874    -0.20180
F158        F  0.22591764  0.51124285  0.47225536    -0.19850
F159        F  0.06030317  0.00547438  0.33968806    -0.19900
F160        F  0.06717341  0.45008728  0.36344089    -0.20230
F161        F  0.09398039  0.46907080  0.29825966    -0.22900
C162        C  0.36368211  0.48201247  0.06333434    -0.05740
C163        C  0.38972660  0.00667851  0.08043031     0.00190
C164        C  0.38228204  0.02632799  0.12102410    -0.08380
C165        C  0.34744346  0.02292286  0.14071665    -0.05760
C166        C  0.32082667  0.99815268  0.12363418     0.00180
C167        C  0.33026176  0.47585963  0.08561019    -0.08290
C168        C  0.30740614  0.44440013  0.06801093     0.62090
H169        H  0.37016721  0.46617169  0.03300593     0.12780
H170        H  0.34082385  0.03977107  0.16993797     0.12790
C171        C  0.41095957  0.05072438  0.14311135     0.62320
F172        F  0.28223718  0.43274665  0.10024051    -0.22850
F173        F  0.29039989  0.95322257  0.02753107    -0.20180
F174        F  0.32906660  0.41660708  0.05822490    -0.19850
F175        F  0.41999866  0.07743810  0.11309720    -0.19900
F176        F  0.44127537  0.53234554  0.15224217    -0.20230
F177        F  0.39927251  0.06547236  0.18452296    -0.22900
C178        C  0.15654200  0.01087685  0.14493194    -0.05740
C179        C  0.18260591  0.98886572  0.12664807     0.00190
C180        C  0.17159587  0.46324950  0.09241611    -0.08380
C181        C  0.13672339  0.46422932  0.07348040    -0.05760
C182        C  0.11103353  0.98728013  0.09078391     0.00180
C183        C  0.12030471  0.00802865  0.13092278    -0.08290
C184        C  0.09370683  0.02684911  0.16130246     0.62090
H185        H  0.16420933  0.02943293  0.17263957     0.12780
H186        H  0.12953021  0.44690816  0.04435354     0.12790
C187        C  0.19555163  0.43435299  0.07633979     0.62320
F188        F  0.10311267  0.02444898  0.20758882    -0.22850
F189        F  0.05894092  0.01246211  0.15734406    -0.20180
F190        F  0.09501332  0.06179122  0.14995280    -0.19880
F191        F  0.21142440  0.41964940  0.11414504    -0.19900
F192        F  0.22163409  0.44791775  0.04667570    -0.20230
F193        F  0.17619000  0.40767977  0.05266752    -0.22900
O194        O  0.07467278  0.47506973  0.52366243    -0.80090
O195        O  0.42369197  0.02734972  0.51588969    -0.80120
O196        O  0.00485543  0.06433710  0.56717460    -0.80130
O197        O  0.45500993  0.42327741  0.53517414    -0.80070
O198        O  0.47076048  0.08449660  0.51308854    -0.80190
O199        O  0.01174585  0.44016611  0.54786114    -0.80110
O200        O  0.44999662  0.49193055  0.56373621    -0.80090
O201        O  0.05490669  0.01363294  0.57225182    -0.80130
C202        C  0.07797218  0.99152382  0.56203435     1.09600
C203        C  0.42383844  0.01060167  0.55378682     1.09480
C204        C  0.98552891  0.08808231  0.55287385     1.09620
C205        C  0.98455069  0.41828850  0.55531659     1.09500
O206        O  0.04605811  0.42471170  0.96816424    -0.80100
O207        O  0.49895115  0.05918877  0.92520541    -0.80170
O208        O  0.07859912  0.03107125  0.97860489    -0.80110
O209        O  0.42682633  0.46836525  0.97418510    -0.80090
O210        O  0.45075965  0.00412683  0.92444958    -0.80140
O211        O  0.05118903  0.49074281  0.93354899    -0.80110
O212        O  0.48934625  0.43478933  0.95482808    -0.80060
O213        O  0.03363301  0.08514354  0.97823719    -0.80130
Co214      Co  0.02871806  0.46806553  0.48815303     1.51530
Co215      Co  0.46327707  0.04161432  0.47039779     1.51690
Co216      Co  0.04046456  0.04605544  0.52348805     1.51570
Co217      Co  0.47250089  0.46654793  0.01132550     1.51470
O218        O  0.00126698  0.51161122  0.49843569    -1.42030
C219        C  0.51642147  0.41475853  0.94977766     1.09520
C220        C  0.51932032  0.08479376  0.93823536     1.09610
C221        C  0.07826850  0.51132271  0.94211611     1.09550
C222        C  0.42512572  0.98334694  0.93554562     1.09520
C223        C  0.98774104  0.28711971  0.65335977     0.03170
C224        C  0.98218928  0.25593774  0.62714363    -0.12980
C225        C  0.98008808  0.22349857  0.64919512     0.00670
C226        C  0.98406323  0.22270074  0.69767760    -0.11500
C227        C  0.99375248  0.25321128  0.72423469     0.03160
C228        C  0.99519558  0.28557132  0.70094601    -0.10930
H229        H  0.98053804  0.25711856  0.58973736     0.08760
H230        H  0.98065318  0.19742789  0.71365923     0.06290
H231        H  0.00219346  0.31011396  0.71868210     0.06130
C232        C  0.01219360  0.21633283  0.84467064     0.03170
C233        C  0.01277958  0.24678467  0.87250924    -0.12980
C234        C  0.01029241  0.27957186  0.85239198     0.00670
C235        C  0.00409664  0.28136840  0.80441124    -0.11500
C236        C  0.00219264  0.25101406  0.77544149     0.03160
C237        C  0.00810445  0.21853631  0.79643963    -0.10930
H238        H  0.01407549  0.24467050  0.90984109     0.08760
H239        H  0.00015809  0.30695388  0.79073742     0.06290
H240        H  0.00903313  0.19440604  0.77632756     0.06130
C241        C  0.21885518  0.99071193  0.64965444     0.03170
C242        C  0.25162225  0.99474277  0.62474469    -0.12980
C243        C  0.28493727  0.99580758  0.64836123     0.00670
C244        C  0.28463567  0.99648800  0.69718466    -0.11500
C245        C  0.25227644  0.99634335  0.72333524     0.03160
C246        C  0.21984156  0.99093379  0.69852050    -0.10930
H247        H  0.25136291  0.99709650  0.58741177     0.08760
H248        H  0.31046118  0.99688382  0.71370619     0.06290
H249        H  0.19459778  0.98661377  0.71671963     0.06130
C250        C  0.21922608  0.99950348  0.85098917     0.03170
C251        C  0.25211585  0.99323511  0.87348847    -0.12980
C252        C  0.28519552  0.99563486  0.84916781     0.00670
C253        C  0.28461995  0.99999861  0.80105559    -0.11500
C254        C  0.25226951  0.99969361  0.77598332     0.03160
C255        C  0.22015183  0.00283249  0.80208996    -0.10930
H256        H  0.25249234  0.98641755  0.90946514     0.08760
H257        H  0.31014974  0.00355199  0.78392767     0.06290
H258        H  0.19557319  0.00863603  0.78470601     0.06130
C259        C  0.48545471  0.13145256  0.90452382    -0.05740
C260        C  0.01919320  0.11735761  0.91151243     0.00190
C261        C  0.05082700  0.13525850  0.89511819    -0.08380
C262        C  0.04758187  0.16742366  0.87256389    -0.05760
C263        C  0.01382107  0.18178671  0.86662335     0.00180
C264        C  0.48219321  0.16365279  0.88265799    -0.08290
C265        C  0.44526882  0.17859509  0.87724861     0.62090
H266        H  0.46159011  0.11738611  0.91766780     0.12780
H267        H  0.07136321  0.18184828  0.85987021     0.12790
C268        C  0.08743596  0.11992693  0.90051255     0.62320
F269        F  0.41800280  0.15644615  0.89463502    -0.22850
F270        F  0.43837980  0.18354234  0.83076214    -0.20180
F271        F  0.44422883  0.21044370  0.90097564    -0.19850
F272        F  0.08681600  0.08656537  0.88060274    -0.19900
F273        F  0.09580269  0.11802203  0.94708458    -0.20230
F274        F  0.11443133  0.14015080  0.87912948    -0.22900
C275        C  0.04181974  0.35722584  0.93012661    -0.05740
C276        C  0.01361986  0.38016577  0.92417004     0.00190
C277        C  0.48408664  0.36881689  0.89553481    -0.08380
C278        C  0.48310141  0.33475939  0.87602367    -0.05760
C279        C  0.01161737  0.31246667  0.88101962     0.00180
C280        C  0.04188389  0.32391630  0.90817027    -0.08290
C281        C  0.07469322  0.30192890  0.91316003     0.62090
H282        H  0.06427084  0.36556940  0.95222581     0.12780
H283        H  0.46036276  0.32553020  0.85487551     0.12790
C284        C  0.45540227  0.39317548  0.88170328     0.62320
F285        F  0.10348767  0.32115699  0.93301825    -0.22850
F286        F  0.08578814  0.28979386  0.87006221    -0.20180
F287        F  0.06645601  0.27378208  0.94134235    -0.19850
F288        F  0.47240966  0.42301625  0.86417293    -0.19900
F289        F  0.43420052  0.40152894  0.91952213    -0.20230
F290        F  0.43297227  0.37840556  0.84751566    -0.22900
C291        C  0.00870678  0.16830521  0.63108253    -0.05740
C292        C  0.97998301  0.18962521  0.62244375     0.00190
C293        C  0.45195890  0.17697243  0.59230459    -0.08380
C294        C  0.45461458  0.14358601  0.57067442    -0.05760
C295        C  0.98335975  0.12195275  0.57978426     0.00180
C296        C  0.01065142  0.13451616  0.61147733    -0.08290
C297        C  0.04190232  0.11285629  0.62532298     0.62090
H298        H  0.02970968  0.17847615  0.65440710     0.12780
H299        H  0.43395982  0.13403013  0.54648511     0.12790
C300        C  0.41914088  0.19800684  0.58351480     0.62320
F301        F  0.06533080  0.13085878  0.65577872    -0.22850
F302        F  0.06161809  0.10372551  0.58637312    -0.20180
F303        F  0.02849670  0.08311276  0.64749034    -0.19850
F304        F  0.42865357  0.22619634  0.55597554    -0.19900
F305        F  0.40511922  0.20999023  0.62518776    -0.20230
F306        F  0.39220575  0.17798188  0.56088160    -0.22900
C307        C  0.45445010  0.36844454  0.59661913    -0.05740
C308        C  0.98700921  0.38728307  0.58614781     0.00190
C309        C  0.02001785  0.37405646  0.60201703    -0.08380
C310        C  0.01905569  0.34113406  0.62360266    -0.05760
C311        C  0.98661968  0.32172024  0.63100460     0.00180
C312        C  0.45365144  0.33618990  0.61933216    -0.08290
C313        C  0.41771537  0.31780388  0.63142526     0.62090
H314        H  0.42921955  0.37888316  0.58615996     0.12780
H315        H  0.04377986  0.32993677  0.63463980     0.12790
C316        C  0.05617793  0.39400106  0.59682262     0.62320
F317        F  0.38887499  0.33775991  0.62057114    -0.22850
F318        F  0.41627016  0.31151246  0.67853928    -0.20180
F319        F  0.41377145  0.28629617  0.60707692    -0.19850
F320        F  0.05458381  0.42682185  0.61783294    -0.19900
F321        F  0.06482019  0.39724919  0.55039794    -0.20230
F322        F  0.08383712  0.37709553  0.61765709    -0.22900
C323        C  0.36278084  0.00048815  0.93650277    -0.05740
C324        C  0.39018789  0.98458989  0.91137100     0.00190
C325        C  0.38374549  0.47534986  0.86403613    -0.08380
C326        C  0.34795069  0.47413193  0.84831005    -0.05760
C327        C  0.32102172  0.99220965  0.87232470     0.00180
C328        C  0.33081992  0.00924030  0.91500577    -0.08290
C329        C  0.31367207  0.04186607  0.93343971     0.62090
H330        H  0.36837727  0.01094120  0.97103211     0.12780
H331        H  0.34218081  0.46218259  0.81451893     0.12790
C332        C  0.41242786  0.47044312  0.82717430     0.62320
F333        F  0.29594141  0.05829511  0.89862952    -0.22850
F334        F  0.29064440  0.53323224  0.96948199    -0.20180
F335        F  0.33984007  0.06597420  0.95027257    -0.19850
F336        F  0.41027447  0.43624273  0.81036582    -0.19900
F337        F  0.44680528  0.97882125  0.84274388    -0.20230
F338        F  0.40629403  0.49244425  0.79070656    -0.22900
C339        C  0.14394557  0.52141774  0.93878398    -0.05740
C340        C  0.11280700  0.50853825  0.91566587     0.00190
C341        C  0.11664057  0.99175712  0.87163651    -0.08380
C342        C  0.15180407  0.98764426  0.85369988    -0.05760
C343        C  0.18331561  0.00163518  0.87640599     0.00180
C344        C  0.17860390  0.51944087  0.92002716    -0.08290
C345        C  0.20885132  0.53671669  0.94853195     0.62090
H346        H  0.14121850  0.53288130  0.97322325     0.12780
H347        H  0.15476326  0.97319942  0.82128315     0.12790
C348        C  0.08418999  0.97890748  0.84297345     0.62320
F349        F  0.19661996  0.06045492  0.98141838    -0.22850
F350        F  0.23208204  0.05542379  0.92001883    -0.20180
F351        F  0.22591765  0.51124281  0.97225535    -0.19850
F352        F  0.06030318  0.00547443  0.83968806    -0.19900
F353        F  0.06717340  0.45008727  0.86344089    -0.20230
F354        F  0.09398038  0.46907080  0.79825966    -0.22900
C355        C  0.36368211  0.48201246  0.56333433    -0.05740
C356        C  0.38972660  0.00667853  0.58043031     0.00190
C357        C  0.38228204  0.02632801  0.62102409    -0.08380
C358        C  0.34744346  0.02292288  0.64071665    -0.05760
C359        C  0.32082667  0.99815270  0.62363419     0.00180
C360        C  0.33026177  0.47585961  0.58561019    -0.08290
C361        C  0.30740615  0.44440011  0.56801092     0.62090
H362        H  0.37016721  0.46617168  0.53300592     0.12780
H363        H  0.34082385  0.03977109  0.66993798     0.12790
C364        C  0.41095957  0.05072441  0.64311134     0.62320
F365        F  0.28223718  0.43274663  0.60024050    -0.22850
F366        F  0.29039991  0.95322256  0.52753108    -0.20180
F367        F  0.32906661  0.41660706  0.55822491    -0.19850
F368        F  0.41999865  0.07743812  0.61309718    -0.19900
F369        F  0.44127537  0.53234552  0.65224217    -0.20230
F370        F  0.39927250  0.06547239  0.68452295    -0.22900
C371        C  0.15654200  0.01087687  0.64493194    -0.05740
C372        C  0.18260591  0.98886574  0.62664807     0.00190
C373        C  0.17159587  0.46324949  0.59241610    -0.08380
C374        C  0.13672339  0.46422932  0.57348039    -0.05760
C375        C  0.11103353  0.98728014  0.59078391     0.00180
C376        C  0.12030471  0.00802866  0.63092278    -0.08290
C377        C  0.09370683  0.02684912  0.66130247     0.62090
H378        H  0.16420933  0.02943295  0.67263957     0.12780
H379        H  0.12953021  0.44690816  0.54435353     0.12790
C380        C  0.19555163  0.43435299  0.57633977     0.62320
F381        F  0.10311267  0.02444898  0.70758882    -0.22850
F382        F  0.05894092  0.01246212  0.65734406    -0.20180
F383        F  0.09501332  0.06179123  0.64995281    -0.19880
F384        F  0.21142440  0.41964939  0.61414501    -0.19900
F385        F  0.22163410  0.44791775  0.54667569    -0.20230
F386        F  0.17619000  0.40767977  0.55266748    -0.22900
O387        O  0.07464743  0.97506922  0.02367255    -0.80090
O388        O  0.42371451  0.52734780  0.01588880    -0.80120
O389        O  0.00488159  0.56433914  0.06717092    -0.80130
O390        O  0.45498514  0.92327664  0.03517690    -0.80070
O391        O  0.47078195  0.58449508  0.01308652    -0.80190
O392        O  0.01172053  0.94016639  0.04786536    -0.80110
O393        O  0.44997065  0.99193057  0.06373796    -0.80090
O394        O  0.05493538  0.51363445  0.07224331    -0.80130
C395        C  0.07800111  0.49152599  0.06202265     1.09600
C396        C  0.42386300  0.51060003  0.05378605     1.09480
C397        C  0.98555185  0.58808234  0.05287084     1.09620
C398        C  0.98452598  0.91828794  0.05531958     1.09500
O399        O  0.04603649  0.92471245  0.46817152    -0.80100
O400        O  0.49897107  0.55918847  0.42520173    -0.80170
O401        O  0.07861993  0.53107281  0.47859425    -0.80110
O402        O  0.42680296  0.96836598  0.47418550    -0.80090
O403        O  0.45078087  0.50412570  0.42444735    -0.80140
O404        O  0.05116874  0.99074321  0.43355643    -0.80110
O405        O  0.48932447  0.93478807  0.45483202    -0.80060
O406        O  0.03365333  0.58514495  0.47823148    -0.80130
Co407      Co  0.02869500  0.96806566  0.98815848     1.51530
Co408      Co  0.46329854  0.54161321  0.97039551     1.51690
Co409      Co  0.04048844  0.54605683  0.02348108     1.51570
Co410      Co  0.47247661  0.96654756  0.51132821     1.51470
O411        O  0.00124365  0.01161093  0.99843955    -1.42030
C412        C  0.51640095  0.91475840  0.44978292     1.09520
C413        C  0.51933873  0.58479477  0.43823083     1.09610
C414        C  0.07824846  0.01132228  0.44212567     1.09550
C415        C  0.42514804  0.48334491  0.43554451     1.09520
C416        C  0.98772947  0.78711852  0.15336085     0.03170
C417        C  0.98218542  0.75593609  0.12714376    -0.12980
C418        C  0.98009187  0.72349649  0.14919422     0.00670
C419        C  0.98406744  0.72269863  0.19767662    -0.11500
C420        C  0.99374882  0.75321063  0.22423517     0.03160
C421        C  0.99518360  0.78557109  0.20094738    -0.10930
H422        H  0.98053440  0.75711707  0.08973748     0.08760
H423        H  0.98066334  0.69742487  0.21365682     0.06290
H424        H  0.00217485  0.81011494  0.21868407     0.06130
C425        C  0.01219364  0.71633441  0.34467185     0.03170
C426        C  0.01277592  0.74678606  0.37251051    -0.12980
C427        C  0.01028590  0.77957291  0.35239331     0.00670
C428        C  0.00409088  0.78136890  0.30441223    -0.11500
C429        C  0.00218938  0.75101444  0.27544234     0.03160
C430        C  0.00810438  0.71853745  0.29644084    -0.10930
H431        H  0.01407148  0.74467188  0.40984235     0.08760
H432        H  0.00015128  0.80695410  0.29073843     0.06290
H433        H  0.00903572  0.69440722  0.27632934     0.06130
C434        C  0.21888498  0.49070810  0.14964862     0.03170
C435        C  0.25165398  0.49473918  0.12474343    -0.12980
C436        C  0.28496679  0.49580037  0.14836443     0.00670
C437        C  0.28466153  0.49648054  0.19718612    -0.11500
C438        C  0.25230184  0.49633722  0.22333395     0.03160
C439        C  0.21986819  0.49092847  0.19851514    -0.10930
H440        H  0.25139921  0.49709639  0.08741159     0.08760
H441        H  0.31049292  0.49687604  0.21371561     0.06290
H442        H  0.19462313  0.48660875  0.21671198     0.06130
C443        C  0.21924682  0.49949749  0.35098534     0.03170
C444        C  0.25213604  0.49322978  0.37348698    -0.12980
C445        C  0.28521677  0.49563079  0.34916785     0.00670
C446        C  0.28464106  0.49999607  0.30105690    -0.11500
C447        C  0.25229254  0.49968814  0.27598155     0.03160
C448        C  0.22017370  0.50282533  0.30208623    -0.10930
H449        H  0.25251138  0.48641241  0.40946284     0.08760
H450        H  0.31017760  0.50355396  0.28392416     0.06290
H451        H  0.19559522  0.50862731  0.28470022     0.06130
C452        C  0.48546647  0.63145183  0.40452656    -0.05740
C453        C  0.01920680  0.61735918  0.41150971     0.00190
C454        C  0.05083793  0.63526263  0.39511195    -0.08380
C455        C  0.04758833  0.66742784  0.37255935    -0.05760
C456        C  0.01382574  0.68178859  0.36662424     0.00180
C457        C  0.48220055  0.66365216  0.38266261    -0.08290
C458        C  0.44527433  0.67859169  0.37725870     0.62090
H459        H  0.46160399  0.61738340  0.41767323     0.12780
H460        H  0.07136756  0.68185428  0.35986274     0.12790
C461        C  0.08744869  0.61993373  0.40050105     0.62320
F462        F  0.41801133  0.65643998  0.39464670    -0.22850
F463        F  0.43838157  0.68354015  0.33077347    -0.20180
F464        F  0.44423324  0.71043920  0.40098815    -0.19850
F465        F  0.08682991  0.58657250  0.38059027    -0.19900
F466        F  0.09581915  0.61802874  0.44707193    -0.20230
F467        F  0.11444088  0.64015989  0.37911526    -0.22900
C468        C  0.04180322  0.85722719  0.43013417    -0.05740
C469        C  0.01360263  0.88016585  0.42417446     0.00190
C470        C  0.48407272  0.86881636  0.39553426    -0.08380
C471        C  0.48309048  0.83475901  0.37602261    -0.05760
C472        C  0.01160733  0.81246765  0.38102139     0.00180
C473        C  0.04187131  0.82391849  0.40817603    -0.08290
C474        C  0.07468237  0.80193371  0.41316806     0.62090
H475        H  0.06425202  0.86557121  0.45223695     0.12780
H476        H  0.46035381  0.82552912  0.35487143     0.12790
C477        C  0.45538994  0.89317468  0.38169683     0.62320
F478        F  0.10347474  0.82116420  0.43302746    -0.22850
F479        F  0.08577981  0.78979917  0.37007112    -0.20180
F480        F  0.06644656  0.77378669  0.44135056    -0.19850
F481        F  0.47239942  0.92301516  0.36416835    -0.19900
F482        F  0.43418408  0.90152887  0.41951147    -0.20230
F483        F  0.43296378  0.87840400  0.34750566    -0.22900
C484        C  0.00872017  0.66830827  0.13107909    -0.05740
C485        C  0.97999253  0.68962388  0.12244168     0.00190
C486        C  0.45196984  0.67696739  0.09230269    -0.08380
C487        C  0.45463060  0.64358207  0.07067151    -0.05760
C488        C  0.98337905  0.62195268  0.07978092     0.00180
C489        C  0.01066971  0.63451994  0.11147296    -0.08290
C490        C  0.04192452  0.61286472  0.12531619     0.62090
H491        H  0.02972201  0.67848190  0.15440345     0.12780
H492        H  0.43397690  0.63402373  0.04648219     0.12790
C493        C  0.41914798  0.69799663  0.08351399     0.62320
F494        F  0.06535226  0.63087028  0.15576990    -0.22850
F495        F  0.06163950  0.60373664  0.08636446    -0.20180
F496        F  0.02852388  0.58311977  0.14748470    -0.19850
F497        F  0.42865549  0.72618655  0.05597306    -0.19900
F498        F  0.40512576  0.70997884  0.12518723    -0.20230
F499        F  0.39221493  0.67796734  0.06088301    -0.22900
C500        C  0.45442910  0.86843759  0.09661444    -0.05740
C501        C  0.98698628  0.88728166  0.08614930     0.00190
C502        C  0.01999584  0.87406011  0.10202393    -0.08380
C503        C  0.01903715  0.84113762  0.12360880    -0.05760
C504        C  0.98660359  0.82171871  0.13100555     0.00180
C505        C  0.45363376  0.83618291  0.11932755    -0.08290
C506        C  0.41769950  0.81779128  0.13141537     0.62090
H507        H  0.42919765  0.87887196  0.08615079     0.12780
H508        H  0.04376235  0.82994429  0.13464979     0.12790
C509        C  0.05615342  0.89401043  0.09683698     0.62320
F510        F  0.38885652  0.83774255  0.12055690    -0.22850
F511        F  0.41625129  0.81149960  0.17852924    -0.20180
F512        F  0.41376293  0.78628326  0.10706660    -0.19850
F513        F  0.05455103  0.92683029  0.11784765    -0.19900
F514        F  0.06480070  0.89726037  0.05041400    -0.20230
F515        F  0.08381332  0.87710943  0.11767677    -0.22900
C516        C  0.36280052  0.50047679  0.43650619    -0.05740
C517        C  0.39020975  0.48458524  0.41137054     0.00190
C518        C  0.38372275  0.97535002  0.36403825    -0.08380
C519        C  0.34792807  0.97413326  0.34831204    -0.05760
C520        C  0.32104278  0.49220450  0.37232564     0.00180
C521        C  0.33083955  0.50923028  0.41501041    -0.08290
C522        C  0.31369192  0.54185479  0.43344866     0.62090
H523        H  0.36839551  0.51092499  0.47103829     0.12780
H524        H  0.34215711  0.96218118  0.31452259     0.12790
C525        C  0.41240481  0.97043817  0.32717773     0.62320
F526        F  0.29596538  0.55828863  0.39863915    -0.22850
F527        F  0.29062793  0.03324678  0.46947797    -0.20180
F528        F  0.33985940  0.56596005  0.45028988    -0.19850
F529        F  0.41024911  0.93623649  0.31037447    -0.19900
F530        F  0.44682816  0.47882697  0.34274052    -0.20230
F531        F  0.40627294  0.99243657  0.29070637    -0.22900
C532        C  0.14392590  0.02141833  0.43879305    -0.05740
C533        C  0.11278717  0.00853879  0.41567517     0.00190
C534        C  0.11666061  0.49175517  0.37162829    -0.08380
C535        C  0.15182431  0.48764017  0.35369343    -0.05760
C536        C  0.18333577  0.50163080  0.37640015     0.00180
C537        C  0.17858419  0.01944303  0.42003487    -0.08290
C538        C  0.20883194  0.03671909  0.44853926     0.62090
H539        H  0.14119885  0.03288088  0.47323294     0.12780
H540        H  0.15478363  0.47319397  0.32127785     0.12790
C541        C  0.08421008  0.47890652  0.34296453     0.62320
F542        F  0.19663959  0.56045516  0.48140791    -0.22850
F543        F  0.23210373  0.55541867  0.42001137    -0.20180
F544        F  0.22590145  0.01124543  0.47225923    -0.19850
F545        F  0.06032439  0.50547435  0.33967828    -0.19900
F546        F  0.06715479  0.95008751  0.36345001    -0.20230
F547        F  0.09395988  0.96907223  0.29826827    -0.22900
C548        C  0.36365113  0.98202589  0.06332264    -0.05740
C549        C  0.38975246  0.50667497  0.08043145     0.00190
C550        C  0.38230523  0.52633055  0.12101926    -0.08380
C551        C  0.34746798  0.52292226  0.14071456    -0.05760
C552        C  0.32085627  0.49814381  0.12364072     0.00180
C553        C  0.33022806  0.97587613  0.08559325    -0.08290
C554        C  0.30735943  0.94443296  0.06797141     0.62090
H555        H  0.37013338  0.96619201  0.03298674     0.12780
H556        H  0.34084518  0.53977389  0.16993075     0.12790
C557        C  0.41097840  0.55073685  0.14309712     0.62320
F558        F  0.28221046  0.93275643  0.10021285    -0.22850
F559        F  0.29047008  0.45315249  0.02753722    -0.20180
F560        F  0.32900888  0.91664329  0.05811836    -0.19850
F561        F  0.42000850  0.57744704  0.11307419    -0.19900
F562        F  0.44125085  0.03232396  0.15225387    -0.20230
F563        F  0.39929023  0.56548877  0.18450572    -0.22900
C564        C  0.15657188  0.51087290  0.14492464    -0.05740
C565        C  0.18263729  0.48886511  0.12663709     0.00190
C566        C  0.17156110  0.96324251  0.09243886    -0.08380
C567        C  0.13668853  0.96422048  0.07350392    -0.05760
C568        C  0.11106615  0.48728438  0.09076681     0.00180
C569        C  0.12033561  0.50802768  0.13091082    -0.08290
C570        C  0.09373622  0.52685175  0.16128358     0.62090
H571        H  0.16423816  0.52942617  0.17263573     0.12780
H572        H  0.12949396  0.94689465  0.04438218     0.12790
C573        C  0.19551447  0.93434209  0.07637094     0.62320
F574        F  0.10314792  0.52447375  0.20757099    -0.22850
F575        F  0.05897417  0.51245196  0.15733956    -0.20180
F576        F  0.09503024  0.56178836  0.14990851    -0.19880
F577        F  0.21139908  0.91965272  0.11417814    -0.19900
F578        F  0.22158741  0.94789878  0.04668804    -0.20230
F579        F  0.17614793  0.90765982  0.05272251    -0.22900
O580        O  0.07464743  0.97506923  0.52367255    -0.80090
O581        O  0.42371451  0.52734780  0.51588880    -0.80120
O582        O  0.00488158  0.56433914  0.56717093    -0.80130
O583        O  0.45498514  0.92327665  0.53517691    -0.80070
O584        O  0.47078195  0.58449508  0.51308652    -0.80190
O585        O  0.01172053  0.94016640  0.54786536    -0.80110
O586        O  0.44997066  0.99193058  0.56373796    -0.80090
O587        O  0.05493538  0.51363445  0.57224331    -0.80130
C588        C  0.07800112  0.49152599  0.56202265     1.09600
C589        C  0.42386300  0.51060002  0.55378604     1.09480
C590        C  0.98555184  0.58808234  0.55287084     1.09620
C591        C  0.98452598  0.91828794  0.55531958     1.09500
O592        O  0.04603649  0.92471245  0.96817152    -0.80100
O593        O  0.49897107  0.55918847  0.92520173    -0.80170
O594        O  0.07861993  0.53107280  0.97859425    -0.80110
O595        O  0.42680296  0.96836597  0.97418550    -0.80090
O596        O  0.45078087  0.50412570  0.92444736    -0.80140
O597        O  0.05116874  0.99074320  0.93355643    -0.80110
O598        O  0.48932447  0.93478806  0.95483201    -0.80060
O599        O  0.03365334  0.58514495  0.97823147    -0.80130
Co600      Co  0.02869501  0.96806567  0.48815848     1.51530
Co601      Co  0.46329854  0.54161321  0.47039551     1.51690
Co602      Co  0.04048844  0.54605683  0.52348109     1.51570
Co603      Co  0.47247661  0.96654755  0.01132821     1.51470
O604        O  0.00124365  0.01161093  0.49843955    -1.42030
C605        C  0.51640095  0.91475840  0.94978291     1.09520
C606        C  0.51933873  0.58479477  0.93823082     1.09610
C607        C  0.07824846  0.01132227  0.94212567     1.09550
C608        C  0.42514804  0.48334491  0.93554451     1.09520
C609        C  0.98772947  0.78711852  0.65336084     0.03170
C610        C  0.98218542  0.75593609  0.62714376    -0.12980
C611        C  0.98009186  0.72349649  0.64919421     0.00670
C612        C  0.98406744  0.72269863  0.69767661    -0.11500
C613        C  0.99374883  0.75321063  0.72423516     0.03160
C614        C  0.99518361  0.78557109  0.70094737    -0.10930
H615        H  0.98053439  0.75711707  0.58973747     0.08760
H616        H  0.98066334  0.69742487  0.71365682     0.06290
H617        H  0.00217486  0.81011494  0.71868406     0.06130
C618        C  0.01219366  0.71633441  0.84467184     0.03170
C619        C  0.01277593  0.74678606  0.87251050    -0.12980
C620        C  0.01028591  0.77957291  0.85239330     0.00670
C621        C  0.00409089  0.78136890  0.80441222    -0.11500
C622        C  0.00218939  0.75101444  0.77544233     0.03160
C623        C  0.00810439  0.71853745  0.79644083    -0.10930
H624        H  0.01407150  0.74467188  0.90984234     0.08760
H625        H  0.00015129  0.80695410  0.79073842     0.06290
H626        H  0.00903573  0.69440722  0.77632932     0.06130
C627        C  0.21888499  0.49070808  0.64964862     0.03170
C628        C  0.25165399  0.49473917  0.62474343    -0.12980
C629        C  0.28496680  0.49580035  0.64836443     0.00670
C630        C  0.28466153  0.49648051  0.69718612    -0.11500
C631        C  0.25230184  0.49633720  0.72333394     0.03160
C632        C  0.21986819  0.49092845  0.69851513    -0.10930
H633        H  0.25139921  0.49709638  0.58741159     0.08760
H634        H  0.31049291  0.49687600  0.71371560     0.06290
H635        H  0.19462313  0.48660874  0.71671197     0.06130
C636        C  0.21924682  0.49949746  0.85098534     0.03170
C637        C  0.25213604  0.49322976  0.87348697    -0.12980
C638        C  0.28521677  0.49563078  0.84916784     0.00670
C639        C  0.28464106  0.49999606  0.80105690    -0.11500
C640        C  0.25229254  0.49968812  0.77598155     0.03160
C641        C  0.22017370  0.50282530  0.80208622    -0.10930
H642        H  0.25251138  0.48641239  0.90946283     0.08760
H643        H  0.31017759  0.50355396  0.78392416     0.06290
H644        H  0.19559521  0.50862727  0.78470022     0.06130
C645        C  0.48546647  0.63145182  0.90452655    -0.05740
C646        C  0.01920680  0.61735918  0.91150970     0.00190
C647        C  0.05083794  0.63526263  0.89511195    -0.08380
C648        C  0.04758835  0.66742784  0.87255935    -0.05760
C649        C  0.01382576  0.68178859  0.86662422     0.00180
C650        C  0.48220055  0.66365216  0.88266260    -0.08290
C651        C  0.44527433  0.67859168  0.87725868     0.62090
H652        H  0.46160399  0.61738339  0.91767322     0.12780
H653        H  0.07136757  0.68185428  0.85986275     0.12790
C654        C  0.08744870  0.61993373  0.90050107     0.62320
F655        F  0.41801133  0.65643997  0.89464668    -0.22850
F656        F  0.43838157  0.68354014  0.83077345    -0.20180
F657        F  0.44423323  0.71043919  0.90098813    -0.19850
F658        F  0.08682992  0.58657251  0.88059029    -0.19900
F659        F  0.09581915  0.61802874  0.94707194    -0.20230
F660        F  0.11444089  0.64015990  0.87911528    -0.22900
C661        C  0.04180323  0.85722719  0.93013416    -0.05740
C662        C  0.01360264  0.88016585  0.92417445     0.00190
C663        C  0.48407275  0.86881638  0.89553420    -0.08380
C664        C  0.48309050  0.83475902  0.87602257    -0.05760
C665        C  0.01160734  0.81246765  0.88102139     0.00180
C666        C  0.04187133  0.82391849  0.90817602    -0.08290
C667        C  0.07468238  0.80193372  0.91316804     0.62090
H668        H  0.06425203  0.86557121  0.95223694     0.12780
H669        H  0.46035384  0.82552915  0.85487136     0.12790
C670        C  0.45539003  0.89317472  0.88169669     0.62320
F671        F  0.10347476  0.82116421  0.93302744    -0.22850
F672        F  0.08577982  0.78979918  0.87007109    -0.20180
F673        F  0.06644658  0.77378669  0.94135054    -0.19850
F674        F  0.47239956  0.92301519  0.86416824    -0.19900
F675        F  0.43418411  0.90152895  0.91951127    -0.20230
F676        F  0.43296391  0.87840406  0.84750547    -0.22900
C677        C  0.00872017  0.66830828  0.63107908    -0.05740
C678        C  0.97999253  0.68962388  0.62244167     0.00190
C679        C  0.45196984  0.67696739  0.59230269    -0.08380
C680        C  0.45463060  0.64358207  0.57067151    -0.05760
C681        C  0.98337904  0.62195268  0.57978092     0.00180
C682        C  0.01066971  0.63451994  0.61147295    -0.08290
C683        C  0.04192452  0.61286472  0.62531618     0.62090
H684        H  0.02972201  0.67848190  0.65440344     0.12780
H685        H  0.43397690  0.63402373  0.54648220     0.12790
C686        C  0.41914799  0.69799663  0.58351399     0.62320
F687        F  0.06535227  0.63087029  0.65576988    -0.22850
F688        F  0.06163950  0.60373664  0.58636445    -0.20180
F689        F  0.02852388  0.58311978  0.64748470    -0.19850
F690        F  0.42865550  0.72618655  0.55597305    -0.19900
F691        F  0.40512577  0.70997885  0.62518722    -0.20230
F692        F  0.39221493  0.67796735  0.56088301    -0.22900
C693        C  0.45442911  0.86843759  0.59661444    -0.05740
C694        C  0.98698628  0.88728166  0.58614930     0.00190
C695        C  0.01999584  0.87406011  0.60202392    -0.08380
C696        C  0.01903715  0.84113762  0.62360879    -0.05760
C697        C  0.98660359  0.82171871  0.63100554     0.00180
C698        C  0.45363377  0.83618291  0.61932754    -0.08290
C699        C  0.41769950  0.81779127  0.63141537     0.62090
H700        H  0.42919766  0.87887196  0.58615080     0.12780
H701        H  0.04376235  0.82994429  0.63464979     0.12790
C702        C  0.05615342  0.89401043  0.59683698     0.62320
F703        F  0.38885653  0.83774255  0.62055690    -0.22850
F704        F  0.41625130  0.81149959  0.67852923    -0.20180
F705        F  0.41376294  0.78628325  0.60706659    -0.19850
F706        F  0.05455103  0.92683029  0.61784765    -0.19900
F707        F  0.06480070  0.89726037  0.55041400    -0.20230
F708        F  0.08381332  0.87710943  0.61767677    -0.22900
C709        C  0.36280052  0.50047678  0.93650619    -0.05740
C710        C  0.39020975  0.48458524  0.91137054     0.00190
C711        C  0.38372275  0.97535003  0.86403824    -0.08380
C712        C  0.34792808  0.97413328  0.84831202    -0.05760
C713        C  0.32104278  0.49220449  0.87232563     0.00180
C714        C  0.33083955  0.50923027  0.91501040    -0.08290
C715        C  0.31369192  0.54185478  0.93344865     0.62090
H716        H  0.36839550  0.51092499  0.97103829     0.12780
H717        H  0.34215712  0.96218121  0.81452257     0.12790
C718        C  0.41240482  0.97043819  0.82717772     0.62320
F719        F  0.29596537  0.55828862  0.89863914    -0.22850
F720        F  0.29062793  0.03324675  0.96947800    -0.20180
F721        F  0.33985939  0.56596004  0.95028987    -0.19850
F722        F  0.41024910  0.93623651  0.81037443    -0.19900
F723        F  0.44682816  0.47882697  0.84274053    -0.20230
F724        F  0.40627296  0.99243661  0.79070639    -0.22900
C725        C  0.14392590  0.02141827  0.93879308    -0.05740
C726        C  0.11278717  0.00853877  0.91567518     0.00190
C727        C  0.11666060  0.49175515  0.87162829    -0.08380
C728        C  0.15182430  0.48764014  0.85369343    -0.05760
C729        C  0.18333577  0.50163077  0.87640015     0.00180
C730        C  0.17858419  0.01944297  0.92003491    -0.08290
C731        C  0.20883194  0.03671901  0.94853932     0.62090
H732        H  0.14119885  0.03288080  0.97323299     0.12780
H733        H  0.15478362  0.47319395  0.82127784     0.12790
C734        C  0.08421008  0.47890651  0.84296453     0.62320
F735        F  0.19663960  0.56045512  0.98140792    -0.22850
F736        F  0.23210373  0.55541864  0.92001138    -0.20180
F737        F  0.22590145  0.01124532  0.97225925    -0.19850
F738        F  0.06032439  0.50547435  0.83967827    -0.19900
F739        F  0.06715477  0.95008754  0.86344995    -0.20230
F740        F  0.09395987  0.96907228  0.79826824    -0.22900
C741        C  0.36365113  0.98202590  0.56332264    -0.05740
C742        C  0.38975246  0.50667496  0.58043145     0.00190
C743        C  0.38230523  0.52633053  0.62101926    -0.08380
C744        C  0.34746798  0.52292224  0.64071456    -0.05760
C745        C  0.32085627  0.49814378  0.62364072     0.00180
C746        C  0.33022807  0.97587615  0.58559326    -0.08290
C747        C  0.30735944  0.94443297  0.56797143     0.62090
H748        H  0.37013338  0.96619201  0.53298675     0.12780
H749        H  0.34084519  0.53977386  0.66993076     0.12790
C750        C  0.41097840  0.55073683  0.64309713     0.62320
F751        F  0.28221046  0.93275644  0.60021287    -0.22850
F752        F  0.29047009  0.45315246  0.52753721    -0.20180
F753        F  0.32900889  0.91664329  0.55811841    -0.19850
F754        F  0.42000850  0.57744703  0.61307420    -0.19900
F755        F  0.44125085  0.03232399  0.65225386    -0.20230
F756        F  0.39929024  0.56548875  0.68450573    -0.22900
C757        C  0.15657189  0.51087289  0.64492463    -0.05740
C758        C  0.18263729  0.48886510  0.62663708     0.00190
C759        C  0.17156111  0.96324253  0.59243886    -0.08380
C760        C  0.13668854  0.96422049  0.57350392    -0.05760
C761        C  0.11106615  0.48728438  0.59076680     0.00180
C762        C  0.12033562  0.50802768  0.63091081    -0.08290
C763        C  0.09373623  0.52685176  0.66128356     0.62090
H764        H  0.16423817  0.52942616  0.67263572     0.12780
H765        H  0.12949396  0.94689466  0.54438218     0.12790
C766        C  0.19551448  0.93434211  0.57637094     0.62320
F767        F  0.10314795  0.52447380  0.70757097    -0.22850
F768        F  0.05897419  0.51245196  0.65733957    -0.20180
F769        F  0.09503024  0.56178836  0.64990844    -0.19880
F770        F  0.21139908  0.91965274  0.61417814    -0.19900
F771        F  0.22158742  0.94789880  0.54668804    -0.20230
F772        F  0.17614794  0.90765984  0.55272250    -0.22900
O773        O  0.57467278  0.47506973  0.02366243    -0.80090
O774        O  0.92369197  0.02734971  0.01588969    -0.80120
O775        O  0.50485543  0.06433710  0.06717461    -0.80130
O776        O  0.95500993  0.42327741  0.03517414    -0.80070
O777        O  0.97076048  0.08449659  0.01308853    -0.80190
O778        O  0.51174585  0.44016612  0.04786115    -0.80110
O779        O  0.94999662  0.49193054  0.06373621    -0.80090
O780        O  0.55490669  0.01363294  0.07225182    -0.80130
C781        C  0.57797218  0.99152382  0.06203434     1.09600
C782        C  0.92383844  0.01060166  0.05378682     1.09480
C783        C  0.48552891  0.08808230  0.05287386     1.09620
C784        C  0.48455069  0.41828851  0.05531660     1.09500
O785        O  0.54605812  0.42471171  0.46816424    -0.80100
O786        O  0.99895115  0.05918876  0.42520540    -0.80170
O787        O  0.57859912  0.03107126  0.47860489    -0.80110
O788        O  0.92682634  0.46836524  0.47418509    -0.80090
O789        O  0.95075965  0.00412683  0.42444958    -0.80140
O790        O  0.55118903  0.49074282  0.43354899    -0.80110
O791        O  0.98934626  0.43478933  0.45482807    -0.80060
O792        O  0.53363302  0.08514355  0.47823719    -0.80130
Co793      Co  0.52871805  0.46806553  0.98815303     1.51530
Co794      Co  0.96327706  0.04161431  0.97039779     1.51690
Co795      Co  0.54046456  0.04605544  0.02348805     1.51570
Co796      Co  0.97250089  0.46654792  0.51132549     1.51470
O797        O  0.50126698  0.51161122  0.99843569    -1.42030
C798        C  0.01642148  0.41475853  0.44977765     1.09520
C799        C  0.01932032  0.08479375  0.43823535     1.09610
C800        C  0.57826850  0.51132272  0.44211611     1.09550
C801        C  0.92512572  0.98334693  0.43554562     1.09520
C802        C  0.48774105  0.28711971  0.15335977     0.03170
C803        C  0.48218929  0.25593774  0.12714363    -0.12980
C804        C  0.48008809  0.22349858  0.14919512     0.00670
C805        C  0.48406324  0.22270075  0.19767760    -0.11500
C806        C  0.49375249  0.25321128  0.22423469     0.03160
C807        C  0.49519559  0.28557133  0.20094601    -0.10930
H808        H  0.48053805  0.25711857  0.08973736     0.08760
H809        H  0.48065319  0.19742789  0.21365924     0.06290
H810        H  0.50219347  0.31011396  0.21868211     0.06130
C811        C  0.51219361  0.21633284  0.34467064     0.03170
C812        C  0.51277959  0.24678468  0.37250924    -0.12980
C813        C  0.51029241  0.27957187  0.35239198     0.00670
C814        C  0.50409664  0.28136841  0.30441125    -0.11500
C815        C  0.50219264  0.25101407  0.27544149     0.03160
C816        C  0.50810445  0.21853632  0.29643963    -0.10930
H817        H  0.51407550  0.24467051  0.40984110     0.08760
H818        H  0.50015809  0.30695389  0.29073742     0.06290
H819        H  0.50903314  0.19440605  0.27632756     0.06130
C820        C  0.71885518  0.99071192  0.14965444     0.03170
C821        C  0.75162225  0.99474276  0.12474469    -0.12980
C822        C  0.78493727  0.99580758  0.14836123     0.00670
C823        C  0.78463567  0.99648801  0.19718465    -0.11500
C824        C  0.75227644  0.99634334  0.22333524     0.03160
C825        C  0.71984156  0.99093378  0.19852050    -0.10930
H826        H  0.75136291  0.99709649  0.08741177     0.08760
H827        H  0.81046119  0.99688383  0.21370619     0.06290
H828        H  0.69459778  0.98661376  0.21671963     0.06130
C829        C  0.71922609  0.99950349  0.35098917     0.03170
C830        C  0.75211585  0.99323512  0.37348847    -0.12980
C831        C  0.78519552  0.99563485  0.34916781     0.00670
C832        C  0.78461994  0.99999860  0.30105559    -0.11500
C833        C  0.75226951  0.99969361  0.27598332     0.03160
C834        C  0.72015184  0.00283250  0.30208996    -0.10930
H835        H  0.75249233  0.98641756  0.40946515     0.08760
H836        H  0.81014975  0.00355196  0.28392767     0.06290
H837        H  0.69557320  0.00863604  0.28470600     0.06130
C838        C  0.98545472  0.13145256  0.40452382    -0.05740
C839        C  0.51919320  0.11735762  0.41151243     0.00190
C840        C  0.55082701  0.13525851  0.39511819    -0.08380
C841        C  0.54758188  0.16742366  0.37256389    -0.05760
C842        C  0.51382107  0.18178672  0.36662335     0.00180
C843        C  0.98219322  0.16365279  0.38265800    -0.08290
C844        C  0.94526884  0.17859509  0.37724862     0.62090
H845        H  0.96159012  0.11738611  0.41766781     0.12780
H846        H  0.57136321  0.18184828  0.35987020     0.12790
C847        C  0.58743596  0.11992693  0.40051254     0.62320
F848        F  0.91800281  0.15644616  0.39463504    -0.22850
F849        F  0.93837981  0.18354235  0.33076215    -0.20180
F850        F  0.94422885  0.21044370  0.40097566    -0.19850
F851        F  0.58681599  0.08656538  0.38060273    -0.19900
F852        F  0.59580269  0.11802203  0.44708457    -0.20230
F853        F  0.61443134  0.14015080  0.37912947    -0.22900
C854        C  0.54181976  0.35722586  0.43012659    -0.05740
C855        C  0.51361986  0.38016577  0.42417004     0.00190
C856        C  0.98408666  0.36881689  0.39553479    -0.08380
C857        C  0.98310143  0.33475938  0.37602365    -0.05760
C858        C  0.51161737  0.31246668  0.38101962     0.00180
C859        C  0.54188390  0.32391631  0.40817025    -0.08290
C860        C  0.57469323  0.30192893  0.41316000     0.62090
H861        H  0.56427086  0.36556942  0.45222577     0.12780
H862        H  0.96036278  0.32553020  0.35487549     0.12790
C863        C  0.95540229  0.39317548  0.38170324     0.62320
F864        F  0.60348769  0.32115702  0.43301821    -0.22850
F865        F  0.58578815  0.28979389  0.37006217    -0.20180
F866        F  0.56645603  0.27378210  0.44134231    -0.19850
F867        F  0.97240969  0.42301625  0.36417290    -0.19900
F868        F  0.93420054  0.40152895  0.41952208    -0.20230
F869        F  0.93297230  0.37840556  0.34751562    -0.22900
C870        C  0.50870679  0.16830521  0.13108254    -0.05740
C871        C  0.47998302  0.18962521  0.12244375     0.00190
C872        C  0.95195890  0.17697242  0.09230459    -0.08380
C873        C  0.95461458  0.14358601  0.07067442    -0.05760
C874        C  0.48335975  0.12195274  0.07978428     0.00180
C875        C  0.51065142  0.13451616  0.11147734    -0.08290
C876        C  0.54190232  0.11285629  0.12532298     0.62090
H877        H  0.52970969  0.17847616  0.15440710     0.12780
H878        H  0.93395982  0.13403012  0.04648511     0.12790
C879        C  0.91914088  0.19800683  0.08351481     0.62320
F880        F  0.56533081  0.13085878  0.15577873    -0.22850
F881        F  0.56161809  0.10372551  0.08637313    -0.20180
F882        F  0.52849670  0.08311276  0.14749035    -0.19850
F883        F  0.92865356  0.22619633  0.05597554    -0.19900
F884        F  0.90511922  0.20999023  0.12518777    -0.20230
F885        F  0.89220575  0.17798187  0.06088160    -0.22900
C886        C  0.95445010  0.36844453  0.09661912    -0.05740
C887        C  0.48700921  0.38728308  0.08614781     0.00190
C888        C  0.52001785  0.37405647  0.10201703    -0.08380
C889        C  0.51905570  0.34113407  0.12360266    -0.05760
C890        C  0.48661969  0.32172024  0.13100460     0.00180
C891        C  0.95365144  0.33618989  0.11933216    -0.08290
C892        C  0.91771537  0.31780387  0.13142525     0.62090
H893        H  0.92921955  0.37888316  0.08615996     0.12780
H894        H  0.54377987  0.32993678  0.13463979     0.12790
C895        C  0.55617793  0.39400107  0.09682263     0.62320
F896        F  0.88887498  0.33775990  0.12057114    -0.22850
F897        F  0.91627016  0.31151245  0.17853928    -0.20180
F898        F  0.91377145  0.28629616  0.10707692    -0.19850
F899        F  0.55458381  0.42682186  0.11783295    -0.19900
F900        F  0.56482019  0.39724920  0.05039794    -0.20230
F901        F  0.58383712  0.37709554  0.11765710    -0.22900
C902        C  0.86278084  0.00048814  0.43650277    -0.05740
C903        C  0.89018789  0.98458988  0.41137100     0.00190
C904        C  0.88374549  0.47534987  0.36403613    -0.08380
C905        C  0.84795069  0.47413195  0.34831004    -0.05760
C906        C  0.82102172  0.99220964  0.37232470     0.00180
C907        C  0.83081992  0.00924029  0.41500578    -0.08290
C908        C  0.81367207  0.04186607  0.43343972     0.62090
H909        H  0.86837727  0.01094119  0.47103211     0.12780
H910        H  0.84218081  0.46218261  0.31451892     0.12790
C911        C  0.91242786  0.47044312  0.32717430     0.62320
F912        F  0.79594142  0.05829511  0.39862952    -0.22850
F913        F  0.79064440  0.53323223  0.46948201    -0.20180
F914        F  0.83984008  0.06597419  0.45027257    -0.19850
F915        F  0.91027447  0.43624273  0.31036582    -0.19900
F916        F  0.94680528  0.97882125  0.34274387    -0.20230
F917        F  0.90629403  0.49244425  0.29070655    -0.22900
C918        C  0.64394557  0.52141774  0.43878399    -0.05740
C919        C  0.61280701  0.50853826  0.41566588     0.00190
C920        C  0.61664057  0.99175713  0.37163651    -0.08380
C921        C  0.65180407  0.98764427  0.35369988    -0.05760
C922        C  0.68331561  0.00163519  0.37640598     0.00180
C923        C  0.67860390  0.51944086  0.42002718    -0.08290
C924        C  0.70885132  0.53671667  0.44853198     0.62090
H925        H  0.64121850  0.53288128  0.47322328     0.12780
H926        H  0.65476326  0.97319942  0.32128315     0.12790
C927        C  0.58418999  0.97890748  0.34297346     0.62320
F928        F  0.69661996  0.06045496  0.48141835    -0.22850
F929        F  0.73208205  0.05542381  0.42001880    -0.20180
F930        F  0.72591765  0.51124279  0.47225537    -0.19850
F931        F  0.56030318  0.00547442  0.33968806    -0.19900
F932        F  0.56717339  0.45008731  0.36344086    -0.20230
F933        F  0.59398038  0.46907084  0.29825964    -0.22900
C934        C  0.86368211  0.48201246  0.06333434    -0.05740
C935        C  0.88972660  0.00667852  0.08043031     0.00190
C936        C  0.88228203  0.02632801  0.12102408    -0.08380
C937        C  0.84744346  0.02292288  0.14071664    -0.05760
C938        C  0.82082667  0.99815269  0.12363418     0.00180
C939        C  0.83026177  0.47585962  0.08561019    -0.08290
C940        C  0.80740615  0.44440012  0.06801093     0.62090
H941        H  0.87016721  0.46617167  0.03300592     0.12780
H942        H  0.84082384  0.03977109  0.16993796     0.12790
C943        C  0.91095956  0.05072442  0.14311132     0.62320
F944        F  0.78223718  0.43274664  0.10024051    -0.22850
F945        F  0.79039991  0.95322254  0.02753108    -0.20180
F946        F  0.82906660  0.41660707  0.05822491    -0.19850
F947        F  0.91999864  0.07743812  0.11309716    -0.19900
F948        F  0.94127538  0.53234551  0.15224218    -0.20230
F949        F  0.89927250  0.06547241  0.18452293    -0.22900
C950        C  0.65654200  0.01087686  0.14493194    -0.05740
C951        C  0.68260591  0.98886573  0.12664807     0.00190
C952        C  0.67159587  0.46324950  0.09241611    -0.08380
C953        C  0.63672339  0.46422933  0.07348039    -0.05760
C954        C  0.61103353  0.98728013  0.09078391     0.00180
C955        C  0.62030471  0.00802865  0.13092278    -0.08290
C956        C  0.59370682  0.02684911  0.16130247     0.62090
H957        H  0.66420933  0.02943294  0.17263957     0.12780
H958        H  0.62953021  0.44690816  0.04435354     0.12790
C959        C  0.69555163  0.43435299  0.07633979     0.62320
F960        F  0.60311266  0.02444896  0.20758883    -0.22850
F961        F  0.55894092  0.01246211  0.15734406    -0.20180
F962        F  0.59501332  0.06179122  0.14995282    -0.19880
F963        F  0.71142439  0.41964940  0.11414504    -0.19900
F964        F  0.72163409  0.44791774  0.04667570    -0.20230
F965        F  0.67618999  0.40767977  0.05266752    -0.22900
O966        O  0.57467279  0.47506974  0.52366243    -0.80090
O967        O  0.92369197  0.02734971  0.51588969    -0.80120
O968        O  0.50485543  0.06433711  0.56717460    -0.80130
O969        O  0.95500993  0.42327741  0.53517413    -0.80070
O970        O  0.97076048  0.08449659  0.51308853    -0.80190
O971        O  0.51174586  0.44016612  0.54786115    -0.80110
O972        O  0.94999662  0.49193054  0.56373621    -0.80090
O973        O  0.55490669  0.01363294  0.57225182    -0.80130
C974        C  0.57797218  0.99152383  0.56203434     1.09600
C975        C  0.92383844  0.01060167  0.55378682     1.09480
C976        C  0.48552891  0.08808231  0.55287385     1.09620
C977        C  0.48455069  0.41828850  0.55531659     1.09500
O978        O  0.54605811  0.42471171  0.96816424    -0.80100
O979        O  0.99895115  0.05918876  0.92520540    -0.80170
O980        O  0.57859912  0.03107126  0.97860489    -0.80110
O981        O  0.92682634  0.46836524  0.97418510    -0.80090
O982        O  0.95075965  0.00412682  0.92444958    -0.80140
O983        O  0.55118902  0.49074282  0.93354899    -0.80110
O984        O  0.98934626  0.43478932  0.95482807    -0.80060
O985        O  0.53363301  0.08514355  0.97823720    -0.80130
Co986      Co  0.52871806  0.46806553  0.48815303     1.51530
Co987      Co  0.96327707  0.04161432  0.47039779     1.51690
Co988      Co  0.54046456  0.04605544  0.52348805     1.51570
Co989      Co  0.97250090  0.46654792  0.01132549     1.51470
O990        O  0.50126698  0.51161122  0.49843569    -1.42030
C991        C  0.01642148  0.41475852  0.94977765     1.09520
C992        C  0.01932032  0.08479375  0.93823535     1.09610
C993        C  0.57826850  0.51132272  0.94211611     1.09550
C994        C  0.92512572  0.98334693  0.93554562     1.09520
C995        C  0.48774104  0.28711971  0.65335978     0.03170
C996        C  0.48218928  0.25593774  0.62714364    -0.12980
C997        C  0.48008808  0.22349858  0.64919512     0.00670
C998        C  0.48406323  0.22270075  0.69767761    -0.11500
C999        C  0.49375248  0.25321128  0.72423470     0.03160
C1000       C  0.49519558  0.28557133  0.70094602    -0.10930
H1001       H  0.48053804  0.25711857  0.58973736     0.08760
H1002       H  0.48065317  0.19742789  0.71365924     0.06290
H1003       H  0.50219346  0.31011396  0.71868211     0.06130
C1004       C  0.51219359  0.21633284  0.84467065     0.03170
C1005       C  0.51277956  0.24678468  0.87250925    -0.12980
C1006       C  0.51029239  0.27957186  0.85239199     0.00670
C1007       C  0.50409662  0.28136841  0.80441126    -0.11500
C1008       C  0.50219263  0.25101407  0.77544150     0.03160
C1009       C  0.50810444  0.21853631  0.79643963    -0.10930
H1010       H  0.51407547  0.24467050  0.90984110     0.08760
H1011       H  0.50015807  0.30695388  0.79073743     0.06290
H1012       H  0.50903312  0.19440605  0.77632757     0.06130
C1013       C  0.71885518  0.99071192  0.64965444     0.03170
C1014       C  0.75162224  0.99474277  0.62474469    -0.12980
C1015       C  0.78493727  0.99580759  0.64836123     0.00670
C1016       C  0.78463567  0.99648803  0.69718465    -0.11500
C1017       C  0.75227644  0.99634336  0.72333524     0.03160
C1018       C  0.71984156  0.99093379  0.69852050    -0.10930
H1019       H  0.75136291  0.99709649  0.58741177     0.08760
H1020       H  0.81046120  0.99688388  0.71370620     0.06290
H1021       H  0.69459778  0.98661376  0.71671964     0.06130
C1022       C  0.71922608  0.99950351  0.85098917     0.03170
C1023       C  0.75211585  0.99323513  0.87348847    -0.12980
C1024       C  0.78519552  0.99563486  0.84916781     0.00670
C1025       C  0.78461994  0.99999859  0.80105559    -0.11500
C1026       C  0.75226952  0.99969361  0.77598332     0.03160
C1027       C  0.72015184  0.00283251  0.80208996    -0.10930
H1028       H  0.75249233  0.98641757  0.90946515     0.08760
H1029       H  0.81014975  0.00355195  0.78392766     0.06290
H1030       H  0.69557320  0.00863606  0.78470600     0.06130
C1031       C  0.98545472  0.13145256  0.90452381    -0.05740
C1032       C  0.51919319  0.11735762  0.91151244     0.00190
C1033       C  0.55082700  0.13525851  0.89511820    -0.08380
C1034       C  0.54758186  0.16742367  0.87256390    -0.05760
C1035       C  0.51382106  0.18178672  0.86662336     0.00180
C1036       C  0.98219322  0.16365279  0.88265799    -0.08290
C1037       C  0.94526883  0.17859509  0.87724860     0.62090
H1038       H  0.96159011  0.11738611  0.91766780     0.12780
H1039       H  0.57136320  0.18184829  0.85987022     0.12790
C1040       C  0.58743595  0.11992695  0.90051256     0.62320
F1041       F  0.91800281  0.15644615  0.89463502    -0.22850
F1042       F  0.93837981  0.18354234  0.83076213    -0.20180
F1043       F  0.94422884  0.21044370  0.90097564    -0.19850
F1044       F  0.58681600  0.08656539  0.88060275    -0.19900
F1045       F  0.59580268  0.11802204  0.94708459    -0.20230
F1046       F  0.61443133  0.14015082  0.87912949    -0.22900
C1047       C  0.54181973  0.35722585  0.93012662    -0.05740
C1048       C  0.51361985  0.38016577  0.92417005     0.00190
C1049       C  0.98408666  0.36881689  0.89553479    -0.08380
C1050       C  0.98310143  0.33475939  0.87602365    -0.05760
C1051       C  0.51161735  0.31246668  0.88101963     0.00180
C1052       C  0.54188387  0.32391630  0.90817028    -0.08290
C1053       C  0.57469320  0.30192891  0.91316004     0.62090
H1054       H  0.56427083  0.36556941  0.95222581     0.12780
H1055       H  0.96036278  0.32553020  0.85487548     0.12790
C1056       C  0.95540230  0.39317548  0.88170323     0.62320
F1057       F  0.60348766  0.32115700  0.93301826    -0.22850
F1058       F  0.58578812  0.28979386  0.87006221    -0.20180
F1059       F  0.56645599  0.27378209  0.94134235    -0.19850
F1060       F  0.97240971  0.42301626  0.86417288    -0.19900
F1061       F  0.93420054  0.40152896  0.91952205    -0.20230
F1062       F  0.93297232  0.37840557  0.84751559    -0.22900
C1063       C  0.50870678  0.16830522  0.63108254    -0.05740
C1064       C  0.47998301  0.18962521  0.62244376     0.00190
C1065       C  0.95195890  0.17697242  0.59230458    -0.08380
C1066       C  0.95461458  0.14358601  0.57067441    -0.05760
C1067       C  0.48335975  0.12195275  0.57978428     0.00180
C1068       C  0.51065142  0.13451616  0.61147734    -0.08290
C1069       C  0.54190232  0.11285629  0.62532300     0.62090
H1070       H  0.52970968  0.17847616  0.65440712     0.12780
H1071       H  0.93395982  0.13403012  0.54648510     0.12790
C1072       C  0.91914088  0.19800684  0.58351480     0.62320
F1073       F  0.56533079  0.13085878  0.65577874    -0.22850
F1074       F  0.56161809  0.10372551  0.58637314    -0.20180
F1075       F  0.52849669  0.08311276  0.64749035    -0.19850
F1076       F  0.92865356  0.22619634  0.55597553    -0.19900
F1077       F  0.90511922  0.20999023  0.62518776    -0.20230
F1078       F  0.89220575  0.17798187  0.56088160    -0.22900
C1079       C  0.95445010  0.36844453  0.59661912    -0.05740
C1080       C  0.48700921  0.38728307  0.58614781     0.00190
C1081       C  0.52001785  0.37405647  0.60201703    -0.08380
C1082       C  0.51905569  0.34113407  0.62360267    -0.05760
C1083       C  0.48661968  0.32172024  0.63100460     0.00180
C1084       C  0.95365144  0.33618989  0.61933215    -0.08290
C1085       C  0.91771537  0.31780387  0.63142525     0.62090
H1086       H  0.92921955  0.37888316  0.58615995     0.12780
H1087       H  0.54377987  0.32993678  0.63463980     0.12790
C1088       C  0.55617793  0.39400107  0.59682263     0.62320
F1089       F  0.88887498  0.33775990  0.62057113    -0.22850
F1090       F  0.91627015  0.31151245  0.67853927    -0.20180
F1091       F  0.91377145  0.28629616  0.60707691    -0.19850
F1092       F  0.55458382  0.42682186  0.61783294    -0.19900
F1093       F  0.56482019  0.39724919  0.55039794    -0.20230
F1094       F  0.58383712  0.37709553  0.61765709    -0.22900
C1095       C  0.86278084  0.00048815  0.93650277    -0.05740
C1096       C  0.89018788  0.98458988  0.91137101     0.00190
C1097       C  0.88374548  0.47534987  0.86403613    -0.08380
C1098       C  0.84795069  0.47413194  0.84831005    -0.05760
C1099       C  0.82102171  0.99220964  0.87232471     0.00180
C1100       C  0.83081992  0.00924030  0.91500578    -0.08290
C1101       C  0.81367207  0.04186607  0.93343971     0.62090
H1102       H  0.86837727  0.01094120  0.97103211     0.12780
H1103       H  0.84218080  0.46218261  0.81451893     0.12790
C1104       C  0.91242785  0.47044311  0.82717430     0.62320
F1105       F  0.79594142  0.05829511  0.89862951    -0.22850
F1106       F  0.79064440  0.53323222  0.96948201    -0.20180
F1107       F  0.83984008  0.06597420  0.95027256    -0.19850
F1108       F  0.91027446  0.43624273  0.81036582    -0.19900
F1109       F  0.94680527  0.97882124  0.84274388    -0.20230
F1110       F  0.90629403  0.49244425  0.79070656    -0.22900
C1111       C  0.64394557  0.52141773  0.93878400    -0.05740
C1112       C  0.61280700  0.50853826  0.91566588     0.00190
C1113       C  0.61664057  0.99175713  0.87163651    -0.08380
C1114       C  0.65180407  0.98764428  0.85369988    -0.05760
C1115       C  0.68331561  0.00163521  0.87640598     0.00180
C1116       C  0.67860390  0.51944085  0.92002718    -0.08290
C1117       C  0.70885131  0.53671666  0.94853199     0.62090
H1118       H  0.64121849  0.53288127  0.97322328     0.12780
H1119       H  0.65476326  0.97319943  0.82128315     0.12790
C1120       C  0.58418999  0.97890748  0.84297346     0.62320
F1121       F  0.69661995  0.06045499  0.98141833    -0.22850
F1122       F  0.73208204  0.05542383  0.92001879    -0.20180
F1123       F  0.72591765  0.51124277  0.97225537    -0.19850
F1124       F  0.56030317  0.00547442  0.83968806    -0.19900
F1125       F  0.56717339  0.45008730  0.86344085    -0.20230
F1126       F  0.59398038  0.46907084  0.79825964    -0.22900
C1127       C  0.86368211  0.48201245  0.56333435    -0.05740
C1128       C  0.88972660  0.00667853  0.58043030     0.00190
C1129       C  0.88228202  0.02632803  0.62102406    -0.08380
C1130       C  0.84744345  0.02292291  0.64071662    -0.05760
C1131       C  0.82082667  0.99815271  0.62363418     0.00180
C1132       C  0.83026177  0.47585961  0.58561020    -0.08290
C1133       C  0.80740616  0.44440010  0.56801095     0.62090
H1134       H  0.87016721  0.46617166  0.53300593     0.12780
H1135       H  0.84082383  0.03977113  0.66993793     0.12790
C1136       C  0.91095954  0.05072446  0.64311128     0.62320
F1137       F  0.78223718  0.43274663  0.60024053    -0.22850
F1138       F  0.79039993  0.95322251  0.52753110    -0.20180
F1139       F  0.82906662  0.41660705  0.55822497    -0.19850
F1140       F  0.91999861  0.07743816  0.61309710    -0.19900
F1141       F  0.94127538  0.53234553  0.65224216    -0.20230
F1142       F  0.89927248  0.06547246  0.68452288    -0.22900
C1143       C  0.65654200  0.01087686  0.64493194    -0.05740
C1144       C  0.68260591  0.98886573  0.62664807     0.00190
C1145       C  0.67159587  0.46324950  0.59241610    -0.08380
C1146       C  0.63672340  0.46422933  0.57348039    -0.05760
C1147       C  0.61103353  0.98728014  0.59078391     0.00180
C1148       C  0.62030471  0.00802866  0.63092278    -0.08290
C1149       C  0.59370682  0.02684911  0.66130246     0.62090
H1150       H  0.66420933  0.02943294  0.67263958     0.12780
H1151       H  0.62953021  0.44690816  0.54435353     0.12790
C1152       C  0.69555164  0.43435299  0.57633978     0.62320
F1153       F  0.60311266  0.02444898  0.70758882    -0.22850
F1154       F  0.55894092  0.01246211  0.65734406    -0.20180
F1155       F  0.59501331  0.06179122  0.64995280    -0.19880
F1156       F  0.71142439  0.41964939  0.61414503    -0.19900
F1157       F  0.72163410  0.44791775  0.54667570    -0.20230
F1158       F  0.67619000  0.40767978  0.55266750    -0.22900
O1159       O  0.57464743  0.97506923  0.02367255    -0.80090
O1160       O  0.92371451  0.52734780  0.01588880    -0.80120
O1161       O  0.50488158  0.56433915  0.06717092    -0.80130
O1162       O  0.95498514  0.92327664  0.03517691    -0.80070
O1163       O  0.97078195  0.58449507  0.01308653    -0.80190
O1164       O  0.51172053  0.94016639  0.04786535    -0.80110
O1165       O  0.94997065  0.99193057  0.06373796    -0.80090
O1166       O  0.55493538  0.51363446  0.07224331    -0.80130
C1167       C  0.57800112  0.49152600  0.06202265     1.09600
C1168       C  0.92386300  0.51060002  0.05378604     1.09480
C1169       C  0.48555184  0.58808235  0.05287084     1.09620
C1170       C  0.48452598  0.91828794  0.05531957     1.09500
O1171       O  0.54603649  0.92471246  0.46817151    -0.80100
O1172       O  0.99897107  0.55918847  0.42520174    -0.80170
O1173       O  0.57861993  0.53107282  0.47859425    -0.80110
O1174       O  0.92680296  0.96836597  0.47418550    -0.80090
O1175       O  0.95078087  0.50412569  0.42444736    -0.80140
O1176       O  0.55116874  0.99074321  0.43355643    -0.80110
O1177       O  0.98932447  0.93478806  0.45483203    -0.80060
O1178       O  0.53365333  0.58514496  0.47823148    -0.80130
Co1179     Co  0.52869501  0.96806567  0.98815848     1.51530
Co1180     Co  0.96329854  0.54161321  0.97039552     1.51690
Co1181     Co  0.54048844  0.54605684  0.02348108     1.51570
Co1182     Co  0.97247660  0.96654755  0.51132821     1.51470
O1183       O  0.50124365  0.01161094  0.99843955    -1.42030
C1184       C  0.01640095  0.91475840  0.44978292     1.09520
C1185       C  0.01933873  0.58479476  0.43823083     1.09610
C1186       C  0.57824846  0.01132228  0.44212567     1.09550
C1187       C  0.92514804  0.48334490  0.43554451     1.09520
C1188       C  0.48772945  0.78711853  0.15336085     0.03170
C1189       C  0.48218540  0.75593610  0.12714376    -0.12980
C1190       C  0.48009184  0.72349649  0.14919422     0.00670
C1191       C  0.48406741  0.72269864  0.19767662    -0.11500
C1192       C  0.49374880  0.75321063  0.22423517     0.03160
C1193       C  0.49518359  0.78557109  0.20094738    -0.10930
H1194       H  0.48053438  0.75711707  0.08973748     0.08760
H1195       H  0.48066331  0.69742487  0.21365683     0.06290
H1196       H  0.50217484  0.81011494  0.21868406     0.06130
C1197       C  0.51219363  0.71633441  0.34467185     0.03170
C1198       C  0.51277592  0.74678607  0.37251050    -0.12980
C1199       C  0.51028589  0.77957292  0.35239330     0.00670
C1200       C  0.50409086  0.78136891  0.30441223    -0.11500
C1201       C  0.50218936  0.75101445  0.27544234     0.03160
C1202       C  0.50810437  0.71853746  0.29644083    -0.10930
H1203       H  0.51407149  0.74467189  0.40984234     0.08760
H1204       H  0.50015125  0.80695411  0.29073843     0.06290
H1205       H  0.50903570  0.69440723  0.27632933     0.06130
C1206       C  0.71888498  0.49070810  0.14964862     0.03170
C1207       C  0.75165399  0.49473917  0.12474344    -0.12980
C1208       C  0.78496679  0.49580036  0.14836444     0.00670
C1209       C  0.78466153  0.49648053  0.19718613    -0.11500
C1210       C  0.75230184  0.49633722  0.22333395     0.03160
C1211       C  0.71986819  0.49092847  0.19851514    -0.10930
H1212       H  0.75139921  0.49709638  0.08741159     0.08760
H1213       H  0.81049290  0.49687601  0.21371559     0.06290
H1214       H  0.69462313  0.48660876  0.21671198     0.06130
C1215       C  0.71924682  0.49949748  0.35098534     0.03170
C1216       C  0.75213605  0.49322977  0.37348698    -0.12980
C1217       C  0.78521677  0.49563080  0.34916784     0.00670
C1218       C  0.78464106  0.49999608  0.30105690    -0.11500
C1219       C  0.75229254  0.49968814  0.27598155     0.03160
C1220       C  0.72017370  0.50282533  0.30208623    -0.10930
H1221       H  0.75251138  0.48641239  0.40946283     0.08760
H1222       H  0.81017758  0.50355399  0.28392418     0.06290
H1223       H  0.69559522  0.50862730  0.28470023     0.06130
C1224       C  0.98546647  0.63145183  0.40452658    -0.05740
C1225       C  0.51920680  0.61735919  0.41150971     0.00190
C1226       C  0.55083793  0.63526264  0.39511195    -0.08380
C1227       C  0.54758833  0.66742786  0.37255935    -0.05760
C1228       C  0.51382574  0.68178859  0.36662423     0.00180
C1229       C  0.98220056  0.66365216  0.38266263    -0.08290
C1230       C  0.94527434  0.67859169  0.37725872     0.62090
H1231       H  0.96160400  0.61738340  0.41767326     0.12780
H1232       H  0.57136755  0.68185430  0.35986276     0.12790
C1233       C  0.58744869  0.61993375  0.40050107     0.62320
F1234       F  0.91801133  0.65643999  0.39464672    -0.22850
F1235       F  0.93838157  0.68354016  0.33077349    -0.20180
F1236       F  0.94423325  0.71043921  0.40098817    -0.19850
F1237       F  0.58682992  0.58657252  0.38059029    -0.19900
F1238       F  0.59581915  0.61802876  0.44707194    -0.20230
F1239       F  0.61444088  0.64015992  0.37911528    -0.22900
C1240       C  0.54180323  0.85722720  0.43013413    -0.05740
C1241       C  0.51360263  0.88016586  0.42417445     0.00190
C1242       C  0.98407274  0.86881637  0.39553424    -0.08380
C1243       C  0.98309050  0.83475901  0.37602259    -0.05760
C1244       C  0.51160732  0.81246766  0.38102139     0.00180
C1245       C  0.54187132  0.82391851  0.40817600    -0.08290
C1246       C  0.57468238  0.80193374  0.41316799     0.62090
H1247       H  0.56425204  0.86557123  0.45223689     0.12780
H1248       H  0.96035383  0.82552914  0.35487139     0.12790
C1249       C  0.95538999  0.89317470  0.38169676     0.62320
F1250       F  0.60347476  0.82116423  0.43302738    -0.22850
F1251       F  0.58577980  0.78979921  0.37007104    -0.20180
F1252       F  0.56644659  0.77378671  0.44135049    -0.19850
F1253       F  0.97239950  0.92301517  0.36416830    -0.19900
F1254       F  0.93418410  0.90152891  0.41951136    -0.20230
F1255       F  0.93296386  0.87840402  0.34750555    -0.22900
C1256       C  0.50872015  0.66830828  0.13107910    -0.05740
C1257       C  0.47999251  0.68962388  0.12244168     0.00190
C1258       C  0.95196986  0.67696739  0.09230270    -0.08380
C1259       C  0.95463061  0.64358207  0.07067151    -0.05760
C1260       C  0.48337903  0.62195269  0.07978092     0.00180
C1261       C  0.51066969  0.63451995  0.11147296    -0.08290
C1262       C  0.54192450  0.61286473  0.12531620     0.62090
H1263       H  0.52972199  0.67848191  0.15440346     0.12780
H1264       H  0.93397691  0.63402373  0.04648220     0.12790
C1265       C  0.91914800  0.69799662  0.08351400     0.62320
F1266       F  0.56535224  0.63087030  0.15576991    -0.22850
F1267       F  0.56163949  0.60373666  0.08636447    -0.20180
F1268       F  0.52852387  0.58311978  0.14748470    -0.19850
F1269       F  0.92865551  0.72618655  0.05597306    -0.19900
F1270       F  0.90512579  0.70997884  0.12518724    -0.20230
F1271       F  0.89221494  0.67796734  0.06088303    -0.22900
C1272       C  0.95442911  0.86843758  0.09661445    -0.05740
C1273       C  0.48698628  0.88728166  0.08614929     0.00190
C1274       C  0.51999583  0.87406011  0.10202392    -0.08380
C1275       C  0.51903714  0.84113762  0.12360879    -0.05760
C1276       C  0.48660358  0.82171871  0.13100554     0.00180
C1277       C  0.95363377  0.83618291  0.11932755    -0.08290
C1278       C  0.91769951  0.81779127  0.13141538     0.62090
H1279       H  0.92919766  0.87887196  0.08615080     0.12780
H1280       H  0.54376234  0.82994429  0.13464979     0.12790
C1281       C  0.55615342  0.89401042  0.09683697     0.62320
F1282       F  0.88885653  0.83774254  0.12055691    -0.22850
F1283       F  0.91625131  0.81149959  0.17852925    -0.20180
F1284       F  0.91376294  0.78628325  0.10706661    -0.19850
F1285       F  0.55455103  0.92683028  0.11784764    -0.19900
F1286       F  0.56480069  0.89726036  0.05041398    -0.20230
F1287       F  0.58381332  0.87710942  0.11767676    -0.22900
C1288       C  0.86280052  0.50047677  0.43650619    -0.05740
C1289       C  0.89020975  0.48458524  0.41137053     0.00190
C1290       C  0.88372275  0.97535002  0.36403825    -0.08380
C1291       C  0.84792807  0.97413327  0.34831203    -0.05760
C1292       C  0.82104278  0.49220450  0.37232563     0.00180
C1293       C  0.83083955  0.50923027  0.41501041    -0.08290
C1294       C  0.81369192  0.54185478  0.43344867     0.62090
H1295       H  0.86839550  0.51092497  0.47103830     0.12780
H1296       H  0.84215712  0.96218120  0.31452258     0.12790
C1297       C  0.91240482  0.97043818  0.32717772     0.62320
F1298       F  0.79596537  0.55828862  0.39863917    -0.22850
F1299       F  0.79062793  0.03324674  0.46947800    -0.20180
F1300       F  0.83985939  0.56596003  0.45028991    -0.19850
F1301       F  0.91024910  0.93623649  0.31037445    -0.19900
F1302       F  0.94682816  0.47882697  0.34274053    -0.20230
F1303       F  0.90627295  0.99243658  0.29070638    -0.22900
C1304       C  0.64392590  0.02141830  0.43879307    -0.05740
C1305       C  0.61278717  0.00853879  0.41567518     0.00190
C1306       C  0.61666060  0.49175517  0.37162828    -0.08380
C1307       C  0.65182430  0.48764016  0.35369342    -0.05760
C1308       C  0.68333577  0.50163078  0.37640016     0.00180
C1309       C  0.67858419  0.01944299  0.42003490    -0.08290
C1310       C  0.70883194  0.03671904  0.44853930     0.62090
H1311       H  0.64119885  0.03288083  0.47323297     0.12780
H1312       H  0.65478362  0.47319398  0.32127783     0.12790
C1313       C  0.58421008  0.47890655  0.34296452     0.62320
F1314       F  0.69663960  0.56045509  0.48140797    -0.22850
F1315       F  0.73210373  0.55541863  0.42001142    -0.20180
F1316       F  0.72590145  0.01124535  0.47225924    -0.19850
F1317       F  0.56032439  0.50547439  0.33967828    -0.19900
F1318       F  0.56715477  0.95008754  0.36344997    -0.20230
F1319       F  0.59395987  0.96907227  0.29826825    -0.22900
C1320       C  0.86365113  0.98202589  0.06332265    -0.05740
C1321       C  0.88975246  0.50667496  0.08043145     0.00190
C1322       C  0.88230524  0.52633053  0.12101926    -0.08380
C1323       C  0.84746798  0.52292224  0.14071456    -0.05760
C1324       C  0.82085627  0.49814379  0.12364073     0.00180
C1325       C  0.83022807  0.97587614  0.08559327    -0.08290
C1326       C  0.80735944  0.94443296  0.06797144     0.62090
H1327       H  0.87013338  0.96619200  0.03298676     0.12780
H1328       H  0.84084519  0.53977387  0.16993076     0.12790
C1329       C  0.91097841  0.55073682  0.14309713     0.62320
F1330       F  0.78221046  0.93275643  0.10021288    -0.22850
F1331       F  0.79047009  0.45315247  0.02753722    -0.20180
F1332       F  0.82900889  0.91664328  0.05811843    -0.19850
F1333       F  0.92000851  0.57744702  0.11307420    -0.19900
F1334       F  0.94125084  0.03232400  0.15225385    -0.20230
F1335       F  0.89929024  0.56548874  0.18450573    -0.22900
C1336       C  0.65657189  0.51087291  0.14492463    -0.05740
C1337       C  0.68263729  0.48886511  0.12663708     0.00190
C1338       C  0.67156111  0.96324252  0.09243886    -0.08380
C1339       C  0.63668853  0.96422049  0.07350392    -0.05760
C1340       C  0.61106615  0.48728439  0.09076680     0.00180
C1341       C  0.62033562  0.50802769  0.13091081    -0.08290
C1342       C  0.59373623  0.52685177  0.16128355     0.62090
H1343       H  0.66423817  0.52942618  0.17263572     0.12780
H1344       H  0.62949396  0.94689466  0.04438218     0.12790
C1345       C  0.69551448  0.93434211  0.07637094     0.62320
F1346       F  0.60314794  0.52447382  0.20757096    -0.22850
F1347       F  0.55897419  0.51245197  0.15733957    -0.20180
F1348       F  0.59503023  0.56178838  0.14990843    -0.19880
F1349       F  0.71139908  0.91965273  0.11417814    -0.19900
F1350       F  0.72158742  0.94789880  0.04668804    -0.20230
F1351       F  0.67614794  0.90765983  0.05272249    -0.22900
O1352       O  0.57464743  0.97506923  0.52367255    -0.80090
O1353       O  0.92371451  0.52734779  0.51588880    -0.80120
O1354       O  0.50488158  0.56433915  0.56717092    -0.80130
O1355       O  0.95498514  0.92327664  0.53517692    -0.80070
O1356       O  0.97078195  0.58449507  0.51308653    -0.80190
O1357       O  0.51172053  0.94016640  0.54786536    -0.80110
O1358       O  0.94997065  0.99193058  0.56373796    -0.80090
O1359       O  0.55493538  0.51363446  0.57224331    -0.80130
C1360       C  0.57800112  0.49152600  0.56202265     1.09600
C1361       C  0.92386300  0.51060002  0.55378604     1.09480
C1362       C  0.48555184  0.58808235  0.55287084     1.09620
C1363       C  0.48452598  0.91828795  0.55531958     1.09500
O1364       O  0.54603649  0.92471245  0.96817151    -0.80100
O1365       O  0.99897107  0.55918847  0.92520173    -0.80170
O1366       O  0.57861993  0.53107281  0.97859424    -0.80110
O1367       O  0.92680296  0.96836597  0.97418550    -0.80090
O1368       O  0.95078087  0.50412569  0.92444736    -0.80140
O1369       O  0.55116874  0.99074321  0.93355643    -0.80110
O1370       O  0.98932447  0.93478806  0.95483202    -0.80060
O1371       O  0.53365333  0.58514496  0.97823147    -0.80130
Co1372     Co  0.52869501  0.96806567  0.48815848     1.51530
Co1373     Co  0.96329854  0.54161321  0.47039552     1.51690
Co1374     Co  0.54048844  0.54605684  0.52348108     1.51570
Co1375     Co  0.97247660  0.96654754  0.01132821     1.51470
O1376       O  0.50124365  0.01161094  0.49843956    -1.42030
C1377       C  0.01640095  0.91475839  0.94978292     1.09520
C1378       C  0.01933873  0.58479476  0.93823082     1.09610
C1379       C  0.57824846  0.01132228  0.94212567     1.09550
C1380       C  0.92514804  0.48334490  0.93554451     1.09520
C1381       C  0.48772946  0.78711853  0.65336084     0.03170
C1382       C  0.48218541  0.75593610  0.62714376    -0.12980
C1383       C  0.48009185  0.72349649  0.64919421     0.00670
C1384       C  0.48406742  0.72269864  0.69767661    -0.11500
C1385       C  0.49374881  0.75321063  0.72423516     0.03160
C1386       C  0.49518360  0.78557109  0.70094737    -0.10930
H1387       H  0.48053439  0.75711707  0.58973747     0.08760
H1388       H  0.48066332  0.69742487  0.71365682     0.06290
H1389       H  0.50217485  0.81011494  0.71868406     0.06130
C1390       C  0.51219363  0.71633441  0.84467184     0.03170
C1391       C  0.51277591  0.74678607  0.87251050    -0.12980
C1392       C  0.51028589  0.77957291  0.85239330     0.00670
C1393       C  0.50409088  0.78136890  0.80441222    -0.11500
C1394       C  0.50218937  0.75101445  0.77544233     0.03160
C1395       C  0.50810437  0.71853746  0.79644083    -0.10930
H1396       H  0.51407147  0.74467188  0.90984234     0.08760
H1397       H  0.50015128  0.80695411  0.79073842     0.06290
H1398       H  0.50903571  0.69440722  0.77632932     0.06130
C1399       C  0.71888499  0.49070809  0.64964862     0.03170
C1400       C  0.75165399  0.49473917  0.62474344    -0.12980
C1401       C  0.78496680  0.49580035  0.64836444     0.00670
C1402       C  0.78466154  0.49648052  0.69718613    -0.11500
C1403       C  0.75230184  0.49633721  0.72333395     0.03160
C1404       C  0.71986819  0.49092846  0.69851514    -0.10930
H1405       H  0.75139922  0.49709638  0.58741159     0.08760
H1406       H  0.81049290  0.49687601  0.71371560     0.06290
H1407       H  0.69462313  0.48660876  0.71671198     0.06130
C1408       C  0.71924682  0.49949747  0.85098534     0.03170
C1409       C  0.75213604  0.49322976  0.87348698    -0.12980
C1410       C  0.78521677  0.49563079  0.84916785     0.00670
C1411       C  0.78464106  0.49999608  0.80105691    -0.11500
C1412       C  0.75229254  0.49968813  0.77598155     0.03160
C1413       C  0.72017370  0.50282532  0.80208623    -0.10930
H1414       H  0.75251138  0.48641238  0.90946284     0.08760
H1415       H  0.81017758  0.50355398  0.78392419     0.06290
H1416       H  0.69559521  0.50862729  0.78470023     0.06130
C1417       C  0.98546648  0.63145182  0.90452655    -0.05740
C1418       C  0.51920679  0.61735918  0.91150970     0.00190
C1419       C  0.55083793  0.63526264  0.89511195    -0.08380
C1420       C  0.54758833  0.66742785  0.87255935    -0.05760
C1421       C  0.51382574  0.68178859  0.86662422     0.00180
C1422       C  0.98220057  0.66365216  0.88266260    -0.08290
C1423       C  0.94527435  0.67859168  0.87725868     0.62090
H1424       H  0.96160400  0.61738340  0.91767322     0.12780
H1425       H  0.57136755  0.68185430  0.85986275     0.12790
C1426       C  0.58744869  0.61993375  0.90050107     0.62320
F1427       F  0.91801134  0.65643998  0.89464667    -0.22850
F1428       F  0.93838159  0.68354015  0.83077345    -0.20180
F1429       F  0.94423325  0.71043920  0.90098813    -0.19850
F1430       F  0.58682992  0.58657252  0.88059029    -0.19900
F1431       F  0.59581915  0.61802876  0.94707194    -0.20230
F1432       F  0.61444088  0.64015992  0.87911528    -0.22900
C1433       C  0.54180321  0.85722719  0.93013417    -0.05740
C1434       C  0.51360264  0.88016586  0.92417444     0.00190
C1435       C  0.98407274  0.86881636  0.89553423    -0.08380
C1436       C  0.98309050  0.83475901  0.87602259    -0.05760
C1437       C  0.51160732  0.81246766  0.88102138     0.00180
C1438       C  0.54187131  0.82391849  0.90817603    -0.08290
C1439       C  0.57468236  0.80193371  0.91316807     0.62090
H1440       H  0.56425201  0.86557120  0.95223696     0.12780
H1441       H  0.96035384  0.82552913  0.85487138     0.12790
C1442       C  0.95539000  0.89317469  0.88169675     0.62320
F1443       F  0.60347473  0.82116419  0.93302747    -0.22850
F1444       F  0.58577980  0.78979916  0.87007113    -0.20180
F1445       F  0.56644654  0.77378669  0.94135057    -0.19850
F1446       F  0.97239951  0.92301516  0.86416829    -0.19900
F1447       F  0.93418410  0.90152890  0.91951135    -0.20230
F1448       F  0.93296386  0.87840402  0.84750555    -0.22900
C1449       C  0.50872016  0.66830828  0.63107909    -0.05740
C1450       C  0.47999252  0.68962388  0.62244167     0.00190
C1451       C  0.95196985  0.67696739  0.59230270    -0.08380
C1452       C  0.95463061  0.64358206  0.57067152    -0.05760
C1453       C  0.48337904  0.62195269  0.57978092     0.00180
C1454       C  0.51066970  0.63451995  0.61147296    -0.08290
C1455       C  0.54192451  0.61286473  0.62531619     0.62090
H1456       H  0.52972200  0.67848191  0.65440345     0.12780
H1457       H  0.93397690  0.63402372  0.54648221     0.12790
C1458       C  0.91914799  0.69799662  0.58351400     0.62320
F1459       F  0.56535225  0.63087029  0.65576990    -0.22850
F1460       F  0.56163949  0.60373665  0.58636446    -0.20180
F1461       F  0.52852387  0.58311978  0.64748470    -0.19850
F1462       F  0.92865550  0.72618655  0.55597306    -0.19900
F1463       F  0.90512578  0.70997884  0.62518724    -0.20230
F1464       F  0.89221493  0.67796734  0.56088304    -0.22900
C1465       C  0.95442911  0.86843758  0.59661445    -0.05740
C1466       C  0.48698628  0.88728166  0.58614929     0.00190
C1467       C  0.51999584  0.87406012  0.60202392    -0.08380
C1468       C  0.51903715  0.84113762  0.62360879    -0.05760
C1469       C  0.48660358  0.82171871  0.63100553     0.00180
C1470       C  0.95363377  0.83618291  0.61932755    -0.08290
C1471       C  0.91769951  0.81779127  0.63141537     0.62090
H1472       H  0.92919766  0.87887196  0.58615080     0.12780
H1473       H  0.54376235  0.82994429  0.63464978     0.12790
C1474       C  0.55615342  0.89401042  0.59683696     0.62320
F1475       F  0.88885653  0.83774254  0.62055690    -0.22850
F1476       F  0.91625131  0.81149959  0.67852923    -0.20180
F1477       F  0.91376294  0.78628325  0.60706659    -0.19850
F1478       F  0.55455103  0.92683029  0.61784764    -0.19900
F1479       F  0.56480070  0.89726037  0.55041398    -0.20230
F1480       F  0.58381332  0.87710943  0.61767676    -0.22900
C1481       C  0.86280052  0.50047678  0.93650619    -0.05740
C1482       C  0.89020975  0.48458524  0.91137054     0.00190
C1483       C  0.88372274  0.97535001  0.86403825    -0.08380
C1484       C  0.84792807  0.97413326  0.84831204    -0.05760
C1485       C  0.82104278  0.49220450  0.87232564     0.00180
C1486       C  0.83083955  0.50923027  0.91501041    -0.08290
C1487       C  0.81369191  0.54185478  0.93344867     0.62090
H1488       H  0.86839550  0.51092498  0.97103830     0.12780
H1489       H  0.84215711  0.96218118  0.81452259     0.12790
C1490       C  0.91240481  0.97043817  0.82717773     0.62320
F1491       F  0.79596537  0.55828862  0.89863917    -0.22850
F1492       F  0.79062793  0.03324675  0.96947799    -0.20180
F1493       F  0.83985939  0.56596003  0.95028991    -0.19850
F1494       F  0.91024909  0.93623648  0.81037446    -0.19900
F1495       F  0.94682816  0.47882696  0.84274053    -0.20230
F1496       F  0.90627295  0.99243657  0.79070638    -0.22900
C1497       C  0.64392590  0.02141831  0.93879307    -0.05740
C1498       C  0.61278716  0.00853879  0.91567517     0.00190
C1499       C  0.61666060  0.49175517  0.87162828    -0.08380
C1500       C  0.65182430  0.48764016  0.85369342    -0.05760
C1501       C  0.68333577  0.50163077  0.87640016     0.00180
C1502       C  0.67858419  0.01944301  0.92003489    -0.08290
C1503       C  0.70883194  0.03671906  0.94853929     0.62090
H1504       H  0.64119885  0.03288084  0.97323297     0.12780
H1505       H  0.65478362  0.47319397  0.82127783     0.12790
C1506       C  0.58421007  0.47890655  0.84296451     0.62320
F1507       F  0.69663960  0.56045508  0.98140798    -0.22850
F1508       F  0.73210373  0.55541862  0.92001143    -0.20180
F1509       F  0.72590144  0.01124538  0.97225924    -0.19850
F1510       F  0.56032439  0.50547439  0.83967827    -0.19900
F1511       F  0.56715478  0.95008754  0.86344997    -0.20230
F1512       F  0.59395987  0.96907227  0.79826825    -0.22900
C1513       C  0.86365113  0.98202589  0.56332266    -0.05740
C1514       C  0.88975246  0.50667496  0.58043145     0.00190
C1515       C  0.88230523  0.52633054  0.62101926    -0.08380
C1516       C  0.84746798  0.52292224  0.64071456    -0.05760
C1517       C  0.82085627  0.49814378  0.62364073     0.00180
C1518       C  0.83022807  0.97587614  0.58559328    -0.08290
C1519       C  0.80735945  0.94443295  0.56797147     0.62090
H1520       H  0.87013339  0.96619198  0.53298679     0.12780
H1521       H  0.84084519  0.53977387  0.66993076     0.12790
C1522       C  0.91097840  0.55073684  0.64309712     0.62320
F1523       F  0.78221047  0.93275644  0.60021291    -0.22850
F1524       F  0.79047011  0.45315243  0.52753723    -0.20180
F1525       F  0.82900890  0.91664327  0.55811849    -0.19850
F1526       F  0.92000850  0.57744703  0.61307418    -0.19900
F1527       F  0.94125084  0.03232407  0.65225382    -0.20230
F1528       F  0.89929024  0.56548876  0.68450571    -0.22900
C1529       C  0.65657189  0.51087290  0.64492463    -0.05740
C1530       C  0.68263729  0.48886511  0.62663708     0.00190
C1531       C  0.67156111  0.96324253  0.59243886    -0.08380
C1532       C  0.63668854  0.96422049  0.57350391    -0.05760
C1533       C  0.61106616  0.48728439  0.59076680     0.00180
C1534       C  0.62033562  0.50802769  0.63091081    -0.08290
C1535       C  0.59373623  0.52685177  0.66128355     0.62090
H1536       H  0.66423817  0.52942617  0.67263573     0.12780
H1537       H  0.62949396  0.94689467  0.54438217     0.12790
C1538       C  0.69551448  0.93434211  0.57637093     0.62320
F1539       F  0.60314795  0.52447382  0.70757096    -0.22850
F1540       F  0.55897419  0.51245196  0.65733957    -0.20180
F1541       F  0.59503023  0.56178837  0.64990843    -0.19880
F1542       F  0.71139908  0.91965273  0.61417814    -0.19900
F1543       F  0.72158743  0.94789880  0.54668804    -0.20230
F1544       F  0.67614794  0.90765984  0.55272249    -0.22900
loop_ 
_geom_bond_atom_site_label_1 
_geom_bond_atom_site_label_2 
_geom_bond_distance 
_geom_bond_site_symmetry_2 
_ccdc_geom_bond_type 
O1          Co21   1.997   1_554  S
O1          C395   1.262       .  A
O2          Co22   2.026   1_554  S
O2           C10   1.276       .  A
O3          Co23   1.963       .  S
O3           C11   1.260   1_455  A
O4         Co217   1.885       .  S
O4          C784   1.267       .  A
O5          Co22   2.033   1_554  S
O5          C783   1.274       .  A
O6          Co21   2.118   1_554  S
O6           C12   1.297   1_455  A
O7         Co217   1.979       .  S
O7          C396   1.269       .  A
O8          Co23   1.984       .  S
O8            C9   1.260   1_545  A
C9          O387   1.262       .  A
C9          C182   1.501       .  S
C10         O393   1.269   1_545  A
C10         C163   1.480       .  S
C11         O777   1.274       .  A
C11         C102   1.497       .  S
C12         O776   1.267       .  A
C12         C115   1.500       .  S
O13        Co214   1.881       .  S
O13         C798   1.261       .  A
O14        Co215   1.957       .  S
O14          C27   1.257       .  A
O15        Co216   2.008       .  S
O15         C414   1.279       .  A
O16         Co24   2.014       .  S
O16         C415   1.265       .  A
O17        Co215   1.967       .  S
O17          C29   1.252   1_545  A
O18        Co214   1.972       .  S
O18          C28   1.266       .  A
O19         Co24   2.118       .  S
O19          C26   1.298       .  A
O20        Co216   2.027       .  S
O20         C799   1.270       .  A
Co21        O206   1.881       .  S
Co21        O211   1.972       .  S
Co21         O25   2.007       .  S
Co22        O207   1.957       .  S
Co22        O210   1.967       .  S
Co22       O1183   2.039       .  S
Co23        O208   2.008   1_554  S
Co23        O213   2.027   1_554  S
Co23        O411   2.036   1_554  S
Co24        O197   1.885       .  S
Co24        O200   1.979       .  S
Co24        O990   2.018       .  S
O25       Co1180   2.039   1_455  S
O25        Co409   2.036   1_556  S
O25        Co989   2.018   1_456  S
C26         O785   1.261       .  A
C26         C855   1.497       .  S
C27         O792   1.270       .  A
C27         C839   1.475       .  S
C28         O401   1.279       .  A
C28         C147   1.495       .  S
C29         O402   1.265       .  A
C29         C131   1.478       .  S
C30         C118   1.483       .  S
C30          C31   1.402       .  A
C30          C35   1.402       .  A
C31          C32   1.401       .  A
C31          H36   1.081       .  S
C32          C99   1.490       .  S
C32          C33   1.406       .  A
C33          C34   1.411       .  A
C33          H37   1.079       .  S
C34          C43   1.514   1_655  S
C34          C35   1.416       .  A
C35          H38   1.077   1_655  S
C39          C70   1.478       .  S
C39          C40   1.396       .  A
C39          C44   1.403       .  A
C40          C41   1.397       .  A
C40          H45   1.081       .  S
C41          C86   1.485       .  S
C41          C42   1.405       .  A
C42          C43   1.411       .  A
C42          H46   1.077       .  S
C43          C44   1.417       .  A
C44          H47   1.079       .  S
C48         C179   1.501       .  S
C48          C49   1.413       .  A
C48          C53   1.408       .  A
C49          C50   1.413       .  A
C49          H54   1.081       .  S
C50         C166   1.507       .  S
C50          C51   1.406       .  A
C51          C52   1.414       .  A
C51          H55   1.072       .  S
C52          C61   1.519       .  S
C52          C53   1.407       .  A
C53          H56   1.079       .  S
C57         C150   1.522   1_565  S
C57          C58   1.418       .  A
C57          C62   1.417   1_565  A
C58          C59   1.411       .  A
C58          H63   1.074       .  S
C59         C134   1.503       .  S
C59          C60   1.399       .  A
C60          C61   1.404       .  A
C60          H64   1.070   1_565  S
C61          C62   1.415   1_565  A
C62          H65   1.078       .  S
C66          C71   1.403       .  A
C66         C839   1.404       .  A
C66          H73   1.084       .  S
C67         C799   1.475       .  S
C67          C68   1.413       .  A
C67         C838   1.404   1_455  A
C68          C69   1.411       .  A
C68          C75   1.516       .  S
C69          C70   1.405       .  A
C69          H74   1.083       .  S
C70         C843   1.413   1_455  A
C71         C842   1.413       .  A
C71          C72   1.520       .  S
C72          F76   1.385       .  S
C72          F77   1.383       .  S
C72          F78   1.383       .  S
C75          F79   1.383       .  S
C75          F80   1.382       .  S
C75          F81   1.384       .  S
C82          C83   1.410       .  A
C82          C87   1.407       .  A
C82          H89   1.082       .  S
C83         C798   1.497       .  S
C83         C856   1.420   1_455  A
C84          C85   1.403       .  A
C84         C855   1.420       .  A
C84          C91   1.508       .  S
C85         C858   1.400       .  A
C85          H90   1.083       .  S
C86          C87   1.417       .  A
C86         C857   1.400   1_455  A
C87          C88   1.521       .  S
C88          F92   1.385       .  S
C88          F93   1.383       .  S
C88          F94   1.381       .  S
C91          F95   1.378       .  S
C91          F96   1.381       .  S
C91          F97   1.385       .  S
C98          C99   1.399   1_455  A
C98         C103   1.401       .  A
C98         H105   1.083       .  S
C99         C872   1.417       .  A
C100        C101   1.413       .  A
C100        C871   1.417       .  A
C100        C107   1.517       .  S
C101        C874   1.410       .  A
C101        H106   1.083       .  S
C102        C103   1.425   1_655  A
C102        C873   1.410       .  A
C103        C104   1.517       .  S
C104        F108   1.385       .  S
C104        F109   1.384       .  S
C104        F110   1.383       .  S
C107        F111   1.380       .  S
C107        F112   1.383       .  S
C107        F113   1.384       .  S
C114        C119   1.404       .  A
C114        C887   1.410       .  A
C114        H121   1.082       .  S
C115        C116   1.429   1_655  A
C115        C886   1.410       .  A
C116        C117   1.412       .  A
C116        C123   1.518       .  S
C117        C118   1.400   1_455  A
C117        H122   1.083       .  S
C118        C891   1.412       .  A
C119        C890   1.412       .  A
C119        C120   1.518       .  S
C120        F124   1.385       .  S
C120        F125   1.383       .  S
C120        F126   1.380       .  S
C123        F127   1.382       .  S
C123        F128   1.380       .  S
C123        F129   1.385       .  S
C130        C131   1.400   1_545  A
C130        C135   1.399       .  A
C130        H137   1.080       .  S
C131        C518   1.419       .  A
C132        C133   1.404       .  A
C132        C517   1.419       .  A
C132        C139   1.515       .  S
C133        C520   1.411       .  A
C133        H138   1.083       .  S
C134        C135   1.418   1_565  A
C134        C519   1.411       .  A
C135        C136   1.511       .  S
C136        F140   1.380       .  S
C136        F142   1.386       .  S
C136        F527   1.377       .  S
C139        F143   1.380       .  S
C139        F145   1.385       .  S
C139        F530   1.376       .  S
F141        C522   1.377       .  S
F144        C525   1.376       .  S
C146        C147   1.399       .  A
C146        C151   1.398       .  A
C146        H153   1.082       .  S
C147        C534   1.418       .  A
C148        C149   1.416       .  A
C148        C533   1.418   1_565  A
C148        C155   1.519       .  S
C149        C150   1.418   1_565  A
C149        H154   1.082       .  S
C150        C537   1.429       .  A
C151        C536   1.429       .  A
C151        C152   1.510       .  S
C152        F158   1.380       .  S
C152        F542   1.386       .  S
C152        F543   1.373       .  S
C155        F159   1.384   1_565  S
C155        F546   1.382       .  S
C155        F547   1.385       .  S
F156        C538   1.386       .  S
F157        C538   1.373       .  S
F160        C541   1.382       .  S
F161        C541   1.385       .  S
C162        C167   1.405       .  A
C162        C549   1.399       .  A
C162        H169   1.084       .  S
C163        C164   1.409       .  A
C163        C548   1.399   1_545  A
C164        C165   1.411       .  A
C164        C171   1.512       .  S
C165        C166   1.415   1_545  A
C165        H170   1.082       .  S
C166        C553   1.424       .  A
C167        C552   1.424       .  A
C167        C168   1.514       .  S
C168        F172   1.378       .  S
C168        F174   1.385       .  S
C168        F559   1.382       .  S
C171        F175   1.378       .  S
C171        F177   1.385       .  S
C171        F562   1.384       .  S
F173        C554   1.382       .  S
F176        C557   1.384       .  S
C178        C179   1.405   1_545  A
C178        C183   1.405       .  A
C178        H185   1.085       .  S
C179        C566   1.420       .  A
C180        C181   1.410       .  A
C180        C565   1.420       .  A
C180        C187   1.513       .  S
C181        C568   1.410       .  A
C181        H186   1.083       .  S
C182        C183   1.421   1_565  A
C182        C567   1.410       .  A
C183        C184   1.513       .  S
C184        F188   1.386       .  S
C184        F189   1.381       .  S
C184        F190   1.377       .  S
C187        F191   1.383       .  S
C187        F192   1.377       .  S
C187        F193   1.385       .  S
O194       Co214   1.997       .  S
O194        C588   1.262       .  A
O195       Co215   2.026       .  S
O195        C203   1.276       .  A
O196       Co216   1.963       .  S
O196        C204   1.260   1_455  A
O197        C977   1.267       .  A
O198       Co215   2.033       .  S
O198        C976   1.274       .  A
O199       Co214   2.118       .  S
O199        C205   1.297   1_455  A
O200        C589   1.269       .  A
O201       Co216   1.984       .  S
O201        C202   1.260   1_545  A
C202        O580   1.262       .  A
C202        C375   1.501       .  S
C203        O586   1.269   1_545  A
C203        C356   1.480       .  S
C204        O970   1.274       .  A
C204        C295   1.497       .  S
C205        O969   1.267       .  A
C205        C308   1.500       .  S
O206        C991   1.261       .  A
O207        C220   1.257       .  A
O208        C607   1.279       .  A
O209       Co217   2.014   1_556  S
O209        C608   1.265       .  A
O210        C222   1.252   1_545  A
O211        C221   1.266       .  A
O212       Co217   2.118   1_556  S
O212        C219   1.298       .  A
O213        C992   1.270       .  A
Co214       O218   2.007       .  S
Co215      O1376   2.039       .  S
Co216       O604   2.036       .  S
Co217       O797   2.018   1_554  S
O218      Co1373   2.039   1_455  S
O218       Co602   2.036       .  S
O218       Co796   2.018   1_455  S
C219        O978   1.261       .  A
C219       C1048   1.497       .  S
C220        O985   1.270       .  A
C220       C1032   1.475       .  S
C221        O594   1.279       .  A
C221        C340   1.495       .  S
C222        O595   1.265       .  A
C222        C324   1.478       .  S
C223        C311   1.483       .  S
C223        C224   1.402       .  A
C223        C228   1.402       .  A
C224        C225   1.401       .  A
C224        H229   1.081       .  S
C225        C292   1.490       .  S
C225        C226   1.406       .  A
C226        C227   1.411       .  A
C226        H230   1.079       .  S
C227        C236   1.514   1_655  S
C227        C228   1.416       .  A
C228        H231   1.077   1_655  S
C232        C263   1.478       .  S
C232        C233   1.396       .  A
C232        C237   1.403       .  A
C233        C234   1.397       .  A
C233        H238   1.081       .  S
C234        C279   1.485       .  S
C234        C235   1.405       .  A
C235        C236   1.411       .  A
C235        H239   1.077       .  S
C236        C237   1.417       .  A
C237        H240   1.079       .  S
C241        C372   1.501       .  S
C241        C242   1.413       .  A
C241        C246   1.408       .  A
C242        C243   1.413       .  A
C242        H247   1.081       .  S
C243        C359   1.507       .  S
C243        C244   1.406       .  A
C244        C245   1.414       .  A
C244        H248   1.072       .  S
C245        C254   1.519       .  S
C245        C246   1.407       .  A
C246        H249   1.079       .  S
C250        C343   1.522   1_565  S
C250        C251   1.418       .  A
C250        C255   1.417   1_565  A
C251        C252   1.411       .  A
C251        H256   1.074       .  S
C252        C327   1.503       .  S
C252        C253   1.399       .  A
C253        C254   1.404       .  A
C253        H257   1.070   1_565  S
C254        C255   1.415   1_565  A
C255        H258   1.078       .  S
C259       C1032   1.404       .  A
C259        C264   1.403       .  A
C259        H266   1.084       .  S
C260        C992   1.475       .  S
C260       C1031   1.404   1_455  A
C260        C261   1.413       .  A
C261        C262   1.411       .  A
C261        C268   1.516       .  S
C262        C263   1.405       .  A
C262        H267   1.083       .  S
C263       C1036   1.413   1_455  A
C264       C1035   1.413       .  A
C264        C265   1.520       .  S
C265        F269   1.385       .  S
C265        F270   1.383       .  S
C265        F271   1.383       .  S
C268        F272   1.383       .  S
C268        F273   1.382       .  S
C268        F274   1.384       .  S
C275        C276   1.410       .  A
C275        C280   1.407       .  A
C275        H282   1.082       .  S
C276        C991   1.497       .  S
C276       C1049   1.420   1_455  A
C277       C1048   1.420       .  A
C277        C278   1.403       .  A
C277        C284   1.508       .  S
C278       C1051   1.400       .  A
C278        H283   1.083       .  S
C279       C1050   1.400   1_455  A
C279        C280   1.417       .  A
C280        C281   1.521       .  S
C281        F285   1.385       .  S
C281        F286   1.383       .  S
C281        F287   1.381       .  S
C284        F288   1.378       .  S
C284        F289   1.381       .  S
C284        F290   1.385       .  S
C291        C292   1.399   1_455  A
C291        C296   1.401       .  A
C291        H298   1.083       .  S
C292       C1065   1.417       .  A
C293       C1064   1.417       .  A
C293        C294   1.413       .  A
C293        C300   1.517       .  S
C294       C1067   1.410       .  A
C294        H299   1.083       .  S
C295       C1066   1.410       .  A
C295        C296   1.425   1_655  A
C296        C297   1.517       .  S
C297        F301   1.385       .  S
C297        F302   1.384       .  S
C297        F303   1.383       .  S
C300        F304   1.380       .  S
C300        F305   1.383       .  S
C300        F306   1.384       .  S
C307       C1080   1.410       .  A
C307        C312   1.404       .  A
C307        H314   1.082       .  S
C308       C1079   1.410       .  A
C308        C309   1.429   1_655  A
C309        C310   1.412       .  A
C309        C316   1.518       .  S
C310        C311   1.400   1_455  A
C310        H315   1.083       .  S
C311       C1084   1.412       .  A
C312       C1083   1.412       .  A
C312        C313   1.518       .  S
C313        F317   1.385       .  S
C313        F318   1.383       .  S
C313        F319   1.380       .  S
C316        F320   1.382       .  S
C316        F321   1.380       .  S
C316        F322   1.385       .  S
C323        C324   1.400   1_545  A
C323        C328   1.399       .  A
C323        H330   1.080       .  S
C324        C711   1.419       .  A
C325        C710   1.419       .  A
C325        C326   1.404       .  A
C325        C332   1.515       .  S
C326        C713   1.411       .  A
C326        H331   1.083       .  S
C327        C712   1.411       .  A
C327        C328   1.418   1_565  A
C328        C329   1.511       .  S
C329        F333   1.380       .  S
C329        F720   1.377       .  S
C329        F335   1.386       .  S
C332        F336   1.380       .  S
C332        F723   1.376       .  S
C332        F338   1.385       .  S
F334        C715   1.377       .  S
F337        C718   1.376       .  S
C339        C340   1.399       .  A
C339        C344   1.398       .  A
C339        H346   1.082       .  S
C340        C727   1.418       .  A
C341        C726   1.418   1_565  A
C341        C342   1.416       .  A
C341        C348   1.519       .  S
C342        C343   1.418   1_565  A
C342        H347   1.082       .  S
C343        C730   1.429       .  A
C344        C729   1.429       .  A
C344        C345   1.510       .  S
C345        F735   1.386       .  S
C345        F736   1.373       .  S
C345        F351   1.380       .  S
C348        F352   1.384   1_565  S
C348        F739   1.382       .  S
C348        F740   1.385       .  S
F349        C731   1.386       .  S
F350        C731   1.373       .  S
F353        C734   1.382       .  S
F354        C734   1.385       .  S
C355        C742   1.399       .  A
C355        C360   1.405       .  A
C355        H362   1.084       .  S
C356        C741   1.399   1_545  A
C356        C357   1.409       .  A
C357        C358   1.411       .  A
C357        C364   1.512       .  S
C358        C359   1.415   1_545  A
C358        H363   1.082       .  S
C359        C746   1.424       .  A
C360        C745   1.424       .  A
C360        C361   1.514       .  S
C361        F365   1.378       .  S
C361        F752   1.382       .  S
C361        F367   1.385       .  S
C364        F368   1.378       .  S
C364        F755   1.384       .  S
C364        F370   1.385       .  S
F366        C747   1.382       .  S
F369        C750   1.384       .  S
C371        C372   1.405   1_545  A
C371        C376   1.405       .  A
C371        H378   1.085       .  S
C372        C759   1.420       .  A
C373        C758   1.420       .  A
C373        C374   1.410       .  A
C373        C380   1.513       .  S
C374        C761   1.410       .  A
C374        H379   1.083       .  S
C375        C760   1.410       .  A
C375        C376   1.421   1_565  A
C376        C377   1.513       .  S
C377        F381   1.386       .  S
C377        F382   1.381       .  S
C377        F383   1.377       .  S
C380        F384   1.383       .  S
C380        F385   1.377       .  S
C380        F386   1.385       .  S
O387       Co407   1.997   1_554  S
O388       Co408   2.026   1_554  S
O388        C396   1.276       .  A
O389       Co409   1.963       .  S
O389        C397   1.260   1_455  A
O390       Co603   1.885       .  S
O390       C1170   1.267       .  A
O391       Co408   2.033   1_554  S
O391       C1169   1.274       .  A
O392       Co407   2.118   1_554  S
O392        C398   1.297   1_455  A
O393       Co603   1.979       .  S
O394       Co409   1.984       .  S
O394        C395   1.260       .  A
C395        C568   1.501       .  S
C396        C549   1.480       .  S
C397       O1163   1.274       .  A
C397        C488   1.497       .  S
C398       O1162   1.267       .  A
C398        C501   1.500       .  S
O399       Co600   1.881       .  S
O399       C1184   1.261       .  A
O400       Co601   1.957       .  S
O400        C413   1.257       .  A
O401       Co602   2.008       .  S
O402       Co410   2.014       .  S
O403       Co601   1.967       .  S
O403        C415   1.252       .  A
O404       Co600   1.972       .  S
O404        C414   1.266   1_565  A
O405       Co410   2.118       .  S
O405        C412   1.298       .  A
O406       Co602   2.027       .  S
O406       C1185   1.270       .  A
Co407       O592   1.881       .  S
Co407       O597   1.972       .  S
Co407       O411   2.007   1_565  S
Co408       O593   1.957       .  S
Co408       O596   1.967       .  S
Co408       O797   2.039       .  S
Co409       O594   2.008   1_554  S
Co409       O599   2.027   1_554  S
Co410       O583   1.885       .  S
Co410       O586   1.979       .  S
Co410      O1376   2.018   1_565  S
O411       Co794   2.039   1_455  S
O411      Co1375   2.018   1_446  S
C412       O1171   1.261       .  A
C412       C1241   1.497       .  S
C413       O1178   1.270       .  A
C413       C1225   1.475       .  S
C414        C533   1.495       .  S
C415        C517   1.478       .  S
C416        C504   1.483       .  S
C416        C417   1.402       .  A
C416        C421   1.402       .  A
C417        C418   1.401       .  A
C417        H422   1.081       .  S
C418        C485   1.490       .  S
C418        C419   1.406       .  A
C419        C420   1.411       .  A
C419        H423   1.079       .  S
C420        C429   1.514   1_655  S
C420        C421   1.416       .  A
C421        H424   1.077   1_655  S
C425        C456   1.478       .  S
C425        C426   1.396       .  A
C425        C430   1.403       .  A
C426        C427   1.397       .  A
C426        H431   1.081       .  S
C427        C472   1.485       .  S
C427        C428   1.405       .  A
C428        C429   1.411       .  A
C428        H432   1.077       .  S
C429        C430   1.417       .  A
C430        H433   1.079       .  S
C434        C565   1.501       .  S
C434        C435   1.413       .  A
C434        C439   1.408       .  A
C435        C436   1.413       .  A
C435        H440   1.081       .  S
C436        C552   1.507       .  S
C436        C437   1.406       .  A
C437        C438   1.414       .  A
C437        H441   1.072       .  S
C438        C447   1.519       .  S
C438        C439   1.407       .  A
C439        H442   1.079       .  S
C443        C536   1.522       .  S
C443        C444   1.418       .  A
C443        C448   1.417       .  A
C444        C445   1.411       .  A
C444        H449   1.074       .  S
C445        C520   1.503       .  S
C445        C446   1.399       .  A
C446        C447   1.404       .  A
C446        H450   1.070       .  S
C447        C448   1.415       .  A
C448        H451   1.078       .  S
C452       C1225   1.404       .  A
C452        C457   1.403       .  A
C452        H459   1.084       .  S
C453       C1185   1.475       .  S
C453       C1224   1.404   1_455  A
C453        C454   1.413       .  A
C454        C455   1.411       .  A
C454        C461   1.516       .  S
C455        C456   1.405       .  A
C455        H460   1.083       .  S
C456       C1229   1.413   1_455  A
C457       C1228   1.413       .  A
C457        C458   1.520       .  S
C458        F462   1.385       .  S
C458        F463   1.383       .  S
C458        F464   1.383       .  S
C461        F465   1.383       .  S
C461        F466   1.382       .  S
C461        F467   1.384       .  S
C468        C469   1.410       .  A
C468        C473   1.407       .  A
C468        H475   1.082       .  S
C469       C1184   1.497       .  S
C469       C1242   1.420   1_455  A
C470       C1241   1.420       .  A
C470        C471   1.403       .  A
C470        C477   1.508       .  S
C471       C1244   1.400       .  A
C471        H476   1.083       .  S
C472       C1243   1.400   1_455  A
C472        C473   1.417       .  A
C473        C474   1.521       .  S
C474        F478   1.385       .  S
C474        F479   1.383       .  S
C474        F480   1.381       .  S
C477        F481   1.378       .  S
C477        F482   1.381       .  S
C477        F483   1.385       .  S
C484        C485   1.399   1_455  A
C484        C489   1.401       .  A
C484        H491   1.083       .  S
C485       C1258   1.417       .  A
C486       C1257   1.417       .  A
C486        C487   1.413       .  A
C486        C493   1.517       .  S
C487       C1260   1.410       .  A
C487        H492   1.083       .  S
C488       C1259   1.410       .  A
C488        C489   1.425   1_655  A
C489        C490   1.517       .  S
C490        F494   1.385       .  S
C490        F495   1.384       .  S
C490        F496   1.383       .  S
C493        F497   1.380       .  S
C493        F498   1.383       .  S
C493        F499   1.384       .  S
C500       C1273   1.410       .  A
C500        C505   1.404       .  A
C500        H507   1.082       .  S
C501       C1272   1.410       .  A
C501        C502   1.429   1_655  A
C502        C503   1.412       .  A
C502        C509   1.518       .  S
C503        C504   1.400   1_455  A
C503        H508   1.083       .  S
C504       C1277   1.412       .  A
C505       C1276   1.412       .  A
C505        C506   1.518       .  S
C506        F510   1.385       .  S
C506        F511   1.383       .  S
C506        F512   1.380       .  S
C509        F513   1.382       .  S
C509        F514   1.380       .  S
C509        F515   1.385       .  S
C516        C517   1.400       .  A
C516        C521   1.399       .  A
C516        H523   1.080       .  S
C518        C519   1.404       .  A
C518        C525   1.515       .  S
C519        H524   1.083       .  S
C520        C521   1.418       .  A
C521        C522   1.511       .  S
C522        F526   1.380       .  S
C522        F528   1.386       .  S
C525        F529   1.380       .  S
C525        F531   1.385       .  S
C532        C533   1.399       .  A
C532        C537   1.398       .  A
C532        H539   1.082       .  S
C534        C535   1.416       .  A
C534        C541   1.519       .  S
C535        C536   1.418       .  A
C535        H540   1.082       .  S
C537        C538   1.510       .  S
C538        F544   1.380       .  S
C541        F545   1.384       .  S
C548        C553   1.406       .  A
C548        H555   1.084       .  S
C549        C550   1.409       .  A
C550        C551   1.411       .  A
C550        C557   1.512       .  S
C551        C552   1.415       .  A
C551        H556   1.082       .  S
C553        C554   1.514       .  S
C554        F558   1.378       .  S
C554        F560   1.385       .  S
C557        F561   1.378       .  S
C557        F563   1.385       .  S
C564        C565   1.405       .  A
C564        C569   1.405       .  A
C564        H571   1.085       .  S
C566        C567   1.410       .  A
C566        C573   1.513       .  S
C567        H572   1.083       .  S
C568        C569   1.421       .  A
C569        C570   1.513       .  S
C570        F574   1.386       .  S
C570        F575   1.381       .  S
C570        F576   1.377       .  S
C573        F577   1.383       .  S
C573        F578   1.377       .  S
C573        F579   1.385       .  S
O580       Co600   1.997       .  S
O581       Co601   2.026       .  S
O581        C589   1.276       .  A
O582       Co602   1.963       .  S
O582        C590   1.260   1_455  A
O583       C1363   1.267       .  A
O584       Co601   2.033       .  S
O584       C1362   1.274       .  A
O585       Co600   2.118       .  S
O585        C591   1.297   1_455  A
O587       Co602   1.984       .  S
O587        C588   1.260       .  A
C588        C761   1.501       .  S
C589        C742   1.480       .  S
C590       O1356   1.274       .  A
C590        C681   1.497       .  S
C591       O1355   1.267       .  A
C591        C694   1.500       .  S
O592       C1377   1.261       .  A
O593        C606   1.257       .  A
O595       Co603   2.014   1_556  S
O596        C608   1.252       .  A
O597        C607   1.266   1_565  A
O598       Co603   2.118   1_556  S
O598        C605   1.298       .  A
O599       C1378   1.270       .  A
Co600       O604   2.007   1_565  S
Co601       O990   2.039       .  S
Co603      O1183   2.018   1_564  S
O604       Co987   2.039   1_455  S
O604      Co1182   2.018   1_445  S
C605       O1364   1.261       .  A
C605       C1434   1.497       .  S
C606       O1371   1.270       .  A
C606       C1418   1.475       .  S
C607        C726   1.495       .  S
C608        C710   1.478       .  S
C609        C697   1.483       .  S
C609        C610   1.402       .  A
C609        C614   1.402       .  A
C610        C611   1.401       .  A
C610        H615   1.081       .  S
C611        C678   1.490       .  S
C611        C612   1.406       .  A
C612        C613   1.411       .  A
C612        H616   1.079       .  S
C613        C622   1.514   1_655  S
C613        C614   1.416       .  A
C614        H617   1.077   1_655  S
C618        C649   1.478       .  S
C618        C619   1.396       .  A
C618        C623   1.403       .  A
C619        C620   1.397       .  A
C619        H624   1.081       .  S
C620        C665   1.485       .  S
C620        C621   1.405       .  A
C621        C622   1.411       .  A
C621        H625   1.077       .  S
C622        C623   1.417       .  A
C623        H626   1.079       .  S
C627        C758   1.501       .  S
C627        C628   1.413       .  A
C627        C632   1.408       .  A
C628        C629   1.413       .  A
C628        H633   1.081       .  S
C629        C745   1.507       .  S
C629        C630   1.406       .  A
C630        C631   1.414       .  A
C630        H634   1.072       .  S
C631        C640   1.519       .  S
C631        C632   1.407       .  A
C632        H635   1.079       .  S
C636        C729   1.522       .  S
C636        C637   1.418       .  A
C636        C641   1.417       .  A
C637        C638   1.411       .  A
C637        H642   1.074       .  S
C638        C713   1.503       .  S
C638        C639   1.399       .  A
C639        C640   1.404       .  A
C639        H643   1.070       .  S
C640        C641   1.415       .  A
C641        H644   1.078       .  S
C645       C1418   1.404       .  A
C645        C650   1.403       .  A
C645        H652   1.084       .  S
C646       C1378   1.475       .  S
C646       C1417   1.404   1_455  A
C646        C647   1.413       .  A
C647        C648   1.411       .  A
C647        C654   1.516       .  S
C648        C649   1.405       .  A
C648        H653   1.083       .  S
C649       C1422   1.413   1_455  A
C650       C1421   1.413       .  A
C650        C651   1.520       .  S
C651        F655   1.385       .  S
C651        F656   1.383       .  S
C651        F657   1.383       .  S
C654        F658   1.383       .  S
C654        F659   1.382       .  S
C654        F660   1.384       .  S
C661        C662   1.410       .  A
C661        C666   1.407       .  A
C661        H668   1.082       .  S
C662       C1377   1.497       .  S
C662       C1435   1.420   1_455  A
C663       C1434   1.420       .  A
C663        C664   1.403       .  A
C663        C670   1.508       .  S
C664       C1437   1.400       .  A
C664        H669   1.083       .  S
C665       C1436   1.400   1_455  A
C665        C666   1.417       .  A
C666        C667   1.521       .  S
C667        F671   1.385       .  S
C667        F672   1.383       .  S
C667        F673   1.381       .  S
C670        F674   1.378       .  S
C670        F675   1.381       .  S
C670        F676   1.385       .  S
C677        C678   1.399   1_455  A
C677        C682   1.401       .  A
C677        H684   1.083       .  S
C678       C1451   1.417       .  A
C679       C1450   1.417       .  A
C679        C680   1.413       .  A
C679        C686   1.517       .  S
C680       C1453   1.410       .  A
C680        H685   1.083       .  S
C681       C1452   1.410       .  A
C681        C682   1.425   1_655  A
C682        C683   1.517       .  S
C683        F687   1.385       .  S
C683        F688   1.384       .  S
C683        F689   1.383       .  S
C686        F690   1.380       .  S
C686        F691   1.383       .  S
C686        F692   1.384       .  S
C693       C1466   1.410       .  A
C693        C698   1.404       .  A
C693        H700   1.082       .  S
C694       C1465   1.410       .  A
C694        C695   1.429   1_655  A
C695        C696   1.412       .  A
C695        C702   1.518       .  S
C696        C697   1.400   1_455  A
C696        H701   1.083       .  S
C697       C1470   1.412       .  A
C698       C1469   1.412       .  A
C698        C699   1.518       .  S
C699        F703   1.385       .  S
C699        F704   1.383       .  S
C699        F705   1.380       .  S
C702        F706   1.382       .  S
C702        F707   1.380       .  S
C702        F708   1.385       .  S
C709        C710   1.400       .  A
C709        C714   1.399       .  A
C709        H716   1.080       .  S
C711        C712   1.404       .  A
C711        C718   1.515       .  S
C712        H717   1.083       .  S
C713        C714   1.418       .  A
C714        C715   1.511       .  S
C715        F719   1.380       .  S
C715        F721   1.386       .  S
C718        F722   1.380       .  S
C718        F724   1.385       .  S
C725        C726   1.399       .  A
C725        C730   1.398       .  A
C725        H732   1.082       .  S
C727        C728   1.416       .  A
C727        C734   1.519       .  S
C728        C729   1.418       .  A
C728        H733   1.082       .  S
C730        C731   1.510       .  S
C731        F737   1.380       .  S
C734        F738   1.384       .  S
C741        C746   1.406       .  A
C741        H748   1.084       .  S
C742        C743   1.409       .  A
C743        C744   1.411       .  A
C743        C750   1.512       .  S
C744        C745   1.415       .  A
C744        H749   1.082       .  S
C746        C747   1.514       .  S
C747        F751   1.378       .  S
C747        F753   1.385       .  S
C750        F754   1.378       .  S
C750        F756   1.385       .  S
C757        C758   1.405       .  A
C757        C762   1.405       .  A
C757        H764   1.085       .  S
C759        C760   1.410       .  A
C759        C766   1.513       .  S
C760        H765   1.083       .  S
C761        C762   1.421       .  A
C762        C763   1.513       .  S
C763        F767   1.386       .  S
C763        F768   1.381       .  S
C763        F769   1.377       .  S
C766        F770   1.383       .  S
C766        F771   1.377       .  S
C766        F772   1.385       .  S
O773       Co793   1.997   1_554  S
O773       C1167   1.262       .  A
O774       Co794   2.026   1_554  S
O774        C782   1.276       .  A
O775       Co795   1.963       .  S
O775        C783   1.260       .  A
O776       Co989   1.885       .  S
O777       Co794   2.033   1_554  S
O778       Co793   2.118   1_554  S
O778        C784   1.297       .  A
O779       Co989   1.979       .  S
O779       C1168   1.269       .  A
O780       Co795   1.984       .  S
O780        C781   1.260   1_545  A
C781       O1159   1.262       .  A
C781        C954   1.501       .  S
C782       O1165   1.269   1_545  A
C782        C935   1.480       .  S
C783        C874   1.497       .  S
C784        C887   1.500       .  S
O785       Co986   1.881       .  S
O786       Co987   1.957       .  S
O786        C799   1.257   1_655  A
O787       Co988   2.008       .  S
O787       C1186   1.279       .  A
O788       Co796   2.014       .  S
O788       C1187   1.265       .  A
O789       Co987   1.967       .  S
O789        C801   1.252   1_545  A
O790       Co986   1.972       .  S
O790        C800   1.266       .  A
O791       Co796   2.118       .  S
O791        C798   1.298   1_655  A
O792       Co988   2.027       .  S
Co793       O978   1.881       .  S
Co793       O983   1.972       .  S
Co793       O797   2.007       .  S
Co794       O979   1.957       .  S
Co794       O982   1.967       .  S
Co795       O980   2.008   1_554  S
Co795       O985   2.027   1_554  S
Co795      O1183   2.036   1_554  S
Co796       O969   1.885       .  S
Co796       O972   1.979       .  S
O797      Co1181   2.036   1_556  S
C800       O1173   1.279       .  A
C800        C919   1.495       .  S
C801       O1174   1.265       .  A
C801        C903   1.478       .  S
C802        C890   1.483       .  S
C802        C803   1.402       .  A
C802        C807   1.402       .  A
C803        C804   1.401       .  A
C803        H808   1.081       .  S
C804        C871   1.490       .  S
C804        C805   1.406       .  A
C805        C806   1.411       .  A
C805        H809   1.079       .  S
C806        C815   1.514       .  S
C806        C807   1.416       .  A
C807        H810   1.077       .  S
C811        C842   1.478       .  S
C811        C812   1.396       .  A
C811        C816   1.403       .  A
C812        C813   1.397       .  A
C812        H817   1.081       .  S
C813        C858   1.485       .  S
C813        C814   1.405       .  A
C814        C815   1.411       .  A
C814        H818   1.077       .  S
C815        C816   1.417       .  A
C816        H819   1.079       .  S
C820        C951   1.501       .  S
C820        C821   1.413       .  A
C820        C825   1.408       .  A
C821        C822   1.413       .  A
C821        H826   1.081       .  S
C822        C938   1.507       .  S
C822        C823   1.406       .  A
C823        C824   1.414       .  A
C823        H827   1.072       .  S
C824        C833   1.519       .  S
C824        C825   1.407       .  A
C825        H828   1.079       .  S
C829        C922   1.522   1_565  S
C829        C830   1.418       .  A
C829        C834   1.417   1_565  A
C830        C831   1.411       .  A
C830        H835   1.074       .  S
C831        C906   1.503       .  S
C831        C832   1.399       .  A
C832        C833   1.404       .  A
C832        H836   1.070   1_565  S
C833        C834   1.415   1_565  A
C834        H837   1.078       .  S
C838        C843   1.403       .  A
C838        H845   1.084       .  S
C839        C840   1.413       .  A
C840        C841   1.411       .  A
C840        C847   1.516       .  S
C841        C842   1.405       .  A
C841        H846   1.083       .  S
C843        C844   1.520       .  S
C844        F848   1.385       .  S
C844        F849   1.383       .  S
C844        F850   1.383       .  S
C847        F851   1.383       .  S
C847        F852   1.382       .  S
C847        F853   1.384       .  S
C854        C855   1.410       .  A
C854        C859   1.407       .  A
C854        H861   1.082       .  S
C856        C857   1.403       .  A
C856        C863   1.508       .  S
C857        H862   1.083       .  S
C858        C859   1.417       .  A
C859        C860   1.521       .  S
C860        F864   1.385       .  S
C860        F865   1.383       .  S
C860        F866   1.381       .  S
C863        F867   1.378       .  S
C863        F868   1.381       .  S
C863        F869   1.385       .  S
C870        C871   1.399       .  A
C870        C875   1.401       .  A
C870        H877   1.083       .  S
C872        C873   1.413       .  A
C872        C879   1.517       .  S
C873        H878   1.083       .  S
C874        C875   1.425       .  A
C875        C876   1.517       .  S
C876        F880   1.385       .  S
C876        F881   1.384       .  S
C876        F882   1.383       .  S
C879        F883   1.380       .  S
C879        F884   1.383       .  S
C879        F885   1.384       .  S
C886        C891   1.404       .  A
C886        H893   1.082       .  S
C887        C888   1.429       .  A
C888        C889   1.412       .  A
C888        C895   1.518       .  S
C889        C890   1.400       .  A
C889        H894   1.083       .  S
C891        C892   1.518       .  S
C892        F896   1.385       .  S
C892        F897   1.383       .  S
C892        F898   1.380       .  S
C895        F899   1.382       .  S
C895        F900   1.380       .  S
C895        F901   1.385       .  S
C902        C903   1.400   1_545  A
C902        C907   1.399       .  A
C902        H909   1.080       .  S
C903       C1290   1.419       .  A
C904       C1289   1.419       .  A
C904        C905   1.404       .  A
C904        C911   1.515       .  S
C905       C1292   1.411       .  A
C905        H910   1.083       .  S
C906       C1291   1.411       .  A
C906        C907   1.418   1_565  A
C907        C908   1.511       .  S
C908        F912   1.380       .  S
C908       F1299   1.377       .  S
C908        F914   1.386       .  S
C911        F915   1.380       .  S
C911       F1302   1.376       .  S
C911        F917   1.385       .  S
F913       C1294   1.377       .  S
F916       C1297   1.376       .  S
C918        C919   1.399       .  A
C918        C923   1.398       .  A
C918        H925   1.082       .  S
C919       C1306   1.418       .  A
C920       C1305   1.418   1_565  A
C920        C921   1.416       .  A
C920        C927   1.519       .  S
C921        C922   1.418   1_565  A
C921        H926   1.082       .  S
C922       C1309   1.429       .  A
C923       C1308   1.429       .  A
C923        C924   1.510       .  S
C924       F1314   1.386       .  S
C924       F1315   1.373       .  S
C924        F930   1.380       .  S
C927        F931   1.384   1_565  S
C927       F1318   1.382       .  S
C927       F1319   1.385       .  S
F928       C1310   1.386       .  S
F929       C1310   1.373       .  S
F932       C1313   1.382       .  S
F933       C1313   1.385       .  S
C934       C1321   1.399       .  A
C934        C939   1.405       .  A
C934        H941   1.084       .  S
C935       C1320   1.399   1_545  A
C935        C936   1.409       .  A
C936        C937   1.411       .  A
C936        C943   1.512       .  S
C937        C938   1.415   1_545  A
C937        H942   1.082       .  S
C938       C1325   1.424       .  A
C939       C1324   1.424       .  A
C939        C940   1.514       .  S
C940        F944   1.378       .  S
C940       F1331   1.382       .  S
C940        F946   1.385       .  S
C943        F947   1.378       .  S
C943       F1334   1.384       .  S
C943        F949   1.385       .  S
F945       C1326   1.382       .  S
F948       C1329   1.384       .  S
C950        C951   1.405   1_545  A
C950        C955   1.405       .  A
C950        H957   1.085       .  S
C951       C1338   1.420       .  A
C952       C1337   1.420       .  A
C952        C953   1.410       .  A
C952        C959   1.513       .  S
C953       C1340   1.410       .  A
C953        H958   1.083       .  S
C954       C1339   1.410       .  A
C954        C955   1.421   1_565  A
C955        C956   1.513       .  S
C956        F960   1.386       .  S
C956        F961   1.381       .  S
C956        F962   1.377       .  S
C959        F963   1.383       .  S
C959        F964   1.377       .  S
C959        F965   1.385       .  S
O966       Co986   1.997       .  S
O966       C1360   1.262       .  A
O967       Co987   2.026       .  S
O967        C975   1.276       .  A
O968       Co988   1.963       .  S
O968        C976   1.260       .  A
O970       Co987   2.033       .  S
O971       Co986   2.118       .  S
O971        C977   1.297       .  A
O972       C1361   1.269       .  A
O973       Co988   1.984       .  S
O973        C974   1.260   1_545  A
C974       O1352   1.262       .  A
C974       C1147   1.501       .  S
C975       O1358   1.269   1_545  A
C975       C1128   1.480       .  S
C976       C1067   1.497       .  S
C977       C1080   1.500       .  S
O979        C992   1.257   1_655  A
O980       C1379   1.279       .  A
O981       Co989   2.014   1_556  S
O981       C1380   1.265       .  A
O982        C994   1.252   1_545  A
O983        C993   1.266       .  A
O984       Co989   2.118   1_556  S
O984        C991   1.298   1_655  A
Co986       O990   2.007       .  S
Co988      O1376   2.036       .  S
O990      Co1374   2.036       .  S
C993       O1366   1.279       .  A
C993       C1112   1.495       .  S
C994       O1367   1.265       .  A
C994       C1096   1.478       .  S
C995       C1083   1.483       .  S
C995        C996   1.402       .  A
C995       C1000   1.402       .  A
C996        C997   1.401       .  A
C996       H1001   1.081       .  S
C997       C1064   1.490       .  S
C997        C998   1.406       .  A
C998        C999   1.411       .  A
C998       H1002   1.079       .  S
C999       C1008   1.514       .  S
C999       C1000   1.416       .  A
C1000      H1003   1.077       .  S
C1004      C1035   1.478       .  S
C1004      C1005   1.396       .  A
C1004      C1009   1.403       .  A
C1005      C1006   1.397       .  A
C1005      H1010   1.081       .  S
C1006      C1051   1.485       .  S
C1006      C1007   1.405       .  A
C1007      C1008   1.411       .  A
C1007      H1011   1.077       .  S
C1008      C1009   1.417       .  A
C1009      H1012   1.079       .  S
C1013      C1144   1.501       .  S
C1013      C1014   1.413       .  A
C1013      C1018   1.408       .  A
C1014      C1015   1.413       .  A
C1014      H1019   1.081       .  S
C1015      C1131   1.507       .  S
C1015      C1016   1.406       .  A
C1016      C1017   1.414       .  A
C1016      H1020   1.072       .  S
C1017      C1026   1.519       .  S
C1017      C1018   1.407       .  A
C1018      H1021   1.079       .  S
C1022      C1115   1.522   1_565  S
C1022      C1023   1.418       .  A
C1022      C1027   1.417   1_565  A
C1023      C1024   1.411       .  A
C1023      H1028   1.074       .  S
C1024      C1099   1.503       .  S
C1024      C1025   1.399       .  A
C1025      C1026   1.404       .  A
C1025      H1029   1.070   1_565  S
C1026      C1027   1.415   1_565  A
C1027      H1030   1.078       .  S
C1031      C1036   1.403       .  A
C1031      H1038   1.084       .  S
C1032      C1033   1.413       .  A
C1033      C1034   1.411       .  A
C1033      C1040   1.516       .  S
C1034      C1035   1.405       .  A
C1034      H1039   1.083       .  S
C1036      C1037   1.520       .  S
C1037      F1041   1.385       .  S
C1037      F1042   1.383       .  S
C1037      F1043   1.383       .  S
C1040      F1044   1.383       .  S
C1040      F1045   1.382       .  S
C1040      F1046   1.384       .  S
C1047      C1048   1.410       .  A
C1047      C1052   1.407       .  A
C1047      H1054   1.082       .  S
C1049      C1050   1.403       .  A
C1049      C1056   1.508       .  S
C1050      H1055   1.083       .  S
C1051      C1052   1.417       .  A
C1052      C1053   1.521       .  S
C1053      F1057   1.385       .  S
C1053      F1058   1.383       .  S
C1053      F1059   1.381       .  S
C1056      F1060   1.378       .  S
C1056      F1061   1.381       .  S
C1056      F1062   1.385       .  S
C1063      C1064   1.399       .  A
C1063      C1068   1.401       .  A
C1063      H1070   1.083       .  S
C1065      C1066   1.413       .  A
C1065      C1072   1.517       .  S
C1066      H1071   1.083       .  S
C1067      C1068   1.425       .  A
C1068      C1069   1.517       .  S
C1069      F1073   1.385       .  S
C1069      F1074   1.384       .  S
C1069      F1075   1.383       .  S
C1072      F1076   1.380       .  S
C1072      F1077   1.383       .  S
C1072      F1078   1.384       .  S
C1079      C1084   1.404       .  A
C1079      H1086   1.082       .  S
C1080      C1081   1.429       .  A
C1081      C1082   1.412       .  A
C1081      C1088   1.518       .  S
C1082      C1083   1.400       .  A
C1082      H1087   1.083       .  S
C1084      C1085   1.518       .  S
C1085      F1089   1.385       .  S
C1085      F1090   1.383       .  S
C1085      F1091   1.380       .  S
C1088      F1092   1.382       .  S
C1088      F1093   1.380       .  S
C1088      F1094   1.385       .  S
C1095      C1096   1.400   1_545  A
C1095      C1100   1.399       .  A
C1095      H1102   1.080       .  S
C1096      C1483   1.419       .  A
C1097      C1482   1.419       .  A
C1097      C1098   1.404       .  A
C1097      C1104   1.515       .  S
C1098      C1485   1.411       .  A
C1098      H1103   1.083       .  S
C1099      C1484   1.411       .  A
C1099      C1100   1.418   1_565  A
C1100      C1101   1.511       .  S
C1101      F1105   1.380       .  S
C1101      F1492   1.377       .  S
C1101      F1107   1.386       .  S
C1104      F1108   1.380       .  S
C1104      F1495   1.376       .  S
C1104      F1110   1.385       .  S
F1106      C1487   1.377       .  S
F1109      C1490   1.376       .  S
C1111      C1112   1.399       .  A
C1111      C1116   1.398       .  A
C1111      H1118   1.082       .  S
C1112      C1499   1.418       .  A
C1113      C1498   1.418   1_565  A
C1113      C1114   1.416       .  A
C1113      C1120   1.519       .  S
C1114      C1115   1.418   1_565  A
C1114      H1119   1.082       .  S
C1115      C1502   1.429       .  A
C1116      C1501   1.429       .  A
C1116      C1117   1.510       .  S
C1117      F1507   1.386       .  S
C1117      F1508   1.373       .  S
C1117      F1123   1.380       .  S
C1120      F1124   1.384   1_565  S
C1120      F1511   1.382       .  S
C1120      F1512   1.385       .  S
F1121      C1503   1.386       .  S
F1122      C1503   1.373       .  S
F1125      C1506   1.382       .  S
F1126      C1506   1.385       .  S
C1127      C1514   1.399       .  A
C1127      C1132   1.405       .  A
C1127      H1134   1.084       .  S
C1128      C1513   1.399   1_545  A
C1128      C1129   1.409       .  A
C1129      C1130   1.411       .  A
C1129      C1136   1.512       .  S
C1130      C1131   1.415   1_545  A
C1130      H1135   1.082       .  S
C1131      C1518   1.424       .  A
C1132      C1517   1.424       .  A
C1132      C1133   1.514       .  S
C1133      F1137   1.378       .  S
C1133      F1524   1.382       .  S
C1133      F1139   1.385       .  S
C1136      F1140   1.378       .  S
C1136      F1527   1.384       .  S
C1136      F1142   1.385       .  S
F1138      C1519   1.382       .  S
F1141      C1522   1.384       .  S
C1143      C1144   1.405   1_545  A
C1143      C1148   1.405       .  A
C1143      H1150   1.085       .  S
C1144      C1531   1.420       .  A
C1145      C1530   1.420       .  A
C1145      C1146   1.410       .  A
C1145      C1152   1.513       .  S
C1146      C1533   1.410       .  A
C1146      H1151   1.083       .  S
C1147      C1532   1.410       .  A
C1147      C1148   1.421   1_565  A
C1148      C1149   1.513       .  S
C1149      F1153   1.386       .  S
C1149      F1154   1.381       .  S
C1149      F1155   1.377       .  S
C1152      F1156   1.383       .  S
C1152      F1157   1.377       .  S
C1152      F1158   1.385       .  S
O1159     Co1179   1.997   1_554  S
O1160     Co1180   2.026   1_554  S
O1160      C1168   1.276       .  A
O1161     Co1181   1.963       .  S
O1161      C1169   1.260       .  A
O1162     Co1375   1.885       .  S
O1163     Co1180   2.033   1_554  S
O1164     Co1179   2.118   1_554  S
O1164      C1170   1.297       .  A
O1165     Co1375   1.979       .  S
O1166     Co1181   1.984       .  S
O1166      C1167   1.260       .  A
C1167      C1340   1.501       .  S
C1168      C1321   1.480       .  S
C1169      C1260   1.497       .  S
C1170      C1273   1.500       .  S
O1171     Co1372   1.881       .  S
O1172     Co1373   1.957       .  S
O1172      C1185   1.257   1_655  A
O1173     Co1374   2.008       .  S
O1174     Co1182   2.014       .  S
O1175     Co1373   1.967       .  S
O1175      C1187   1.252       .  A
O1176     Co1372   1.972       .  S
O1176      C1186   1.266   1_565  A
O1177     Co1182   2.118       .  S
O1177      C1184   1.298   1_655  A
O1178     Co1374   2.027       .  S
Co1179     O1364   1.881       .  S
Co1179     O1369   1.972       .  S
Co1179     O1183   2.007   1_565  S
Co1180     O1365   1.957       .  S
Co1180     O1368   1.967       .  S
Co1181     O1366   2.008   1_554  S
Co1181     O1371   2.027   1_554  S
Co1182     O1355   1.885       .  S
Co1182     O1358   1.979       .  S
C1186      C1305   1.495       .  S
C1187      C1289   1.478       .  S
C1188      C1276   1.483       .  S
C1188      C1189   1.402       .  A
C1188      C1193   1.402       .  A
C1189      C1190   1.401       .  A
C1189      H1194   1.081       .  S
C1190      C1257   1.490       .  S
C1190      C1191   1.406       .  A
C1191      C1192   1.411       .  A
C1191      H1195   1.079       .  S
C1192      C1201   1.514       .  S
C1192      C1193   1.416       .  A
C1193      H1196   1.077       .  S
C1197      C1228   1.478       .  S
C1197      C1198   1.396       .  A
C1197      C1202   1.403       .  A
C1198      C1199   1.397       .  A
C1198      H1203   1.081       .  S
C1199      C1244   1.485       .  S
C1199      C1200   1.405       .  A
C1200      C1201   1.411       .  A
C1200      H1204   1.077       .  S
C1201      C1202   1.417       .  A
C1202      H1205   1.079       .  S
C1206      C1337   1.501       .  S
C1206      C1207   1.413       .  A
C1206      C1211   1.408       .  A
C1207      C1208   1.413       .  A
C1207      H1212   1.081       .  S
C1208      C1324   1.507       .  S
C1208      C1209   1.406       .  A
C1209      C1210   1.414       .  A
C1209      H1213   1.072       .  S
C1210      C1219   1.519       .  S
C1210      C1211   1.407       .  A
C1211      H1214   1.079       .  S
C1215      C1308   1.522       .  S
C1215      C1216   1.418       .  A
C1215      C1220   1.417       .  A
C1216      C1217   1.411       .  A
C1216      H1221   1.074       .  S
C1217      C1292   1.503       .  S
C1217      C1218   1.399       .  A
C1218      C1219   1.404       .  A
C1218      H1222   1.070       .  S
C1219      C1220   1.415       .  A
C1220      H1223   1.078       .  S
C1224      C1229   1.403       .  A
C1224      H1231   1.084       .  S
C1225      C1226   1.413       .  A
C1226      C1227   1.411       .  A
C1226      C1233   1.516       .  S
C1227      C1228   1.405       .  A
C1227      H1232   1.083       .  S
C1229      C1230   1.520       .  S
C1230      F1234   1.385       .  S
C1230      F1235   1.383       .  S
C1230      F1236   1.383       .  S
C1233      F1237   1.383       .  S
C1233      F1238   1.382       .  S
C1233      F1239   1.384       .  S
C1240      C1241   1.410       .  A
C1240      C1245   1.407       .  A
C1240      H1247   1.082       .  S
C1242      C1243   1.403       .  A
C1242      C1249   1.508       .  S
C1243      H1248   1.083       .  S
C1244      C1245   1.417       .  A
C1245      C1246   1.521       .  S
C1246      F1250   1.385       .  S
C1246      F1251   1.383       .  S
C1246      F1252   1.381       .  S
C1249      F1253   1.378       .  S
C1249      F1254   1.381       .  S
C1249      F1255   1.385       .  S
C1256      C1257   1.399       .  A
C1256      C1261   1.401       .  A
C1256      H1263   1.083       .  S
C1258      C1259   1.413       .  A
C1258      C1265   1.517       .  S
C1259      H1264   1.083       .  S
C1260      C1261   1.425       .  A
C1261      C1262   1.517       .  S
C1262      F1266   1.385       .  S
C1262      F1267   1.384       .  S
C1262      F1268   1.383       .  S
C1265      F1269   1.380       .  S
C1265      F1270   1.383       .  S
C1265      F1271   1.384       .  S
C1272      C1277   1.404       .  A
C1272      H1279   1.082       .  S
C1273      C1274   1.429       .  A
C1274      C1275   1.412       .  A
C1274      C1281   1.518       .  S
C1275      C1276   1.400       .  A
C1275      H1280   1.083       .  S
C1277      C1278   1.518       .  S
C1278      F1282   1.385       .  S
C1278      F1283   1.383       .  S
C1278      F1284   1.380       .  S
C1281      F1285   1.382       .  S
C1281      F1286   1.380       .  S
C1281      F1287   1.385       .  S
C1288      C1289   1.400       .  A
C1288      C1293   1.399       .  A
C1288      H1295   1.080       .  S
C1290      C1291   1.404       .  A
C1290      C1297   1.515       .  S
C1291      H1296   1.083       .  S
C1292      C1293   1.418       .  A
C1293      C1294   1.511       .  S
C1294      F1298   1.380       .  S
C1294      F1300   1.386       .  S
C1297      F1301   1.380       .  S
C1297      F1303   1.385       .  S
C1304      C1305   1.399       .  A
C1304      C1309   1.398       .  A
C1304      H1311   1.082       .  S
C1306      C1307   1.416       .  A
C1306      C1313   1.519       .  S
C1307      C1308   1.418       .  A
C1307      H1312   1.082       .  S
C1309      C1310   1.510       .  S
C1310      F1316   1.380       .  S
C1313      F1317   1.384       .  S
C1320      C1325   1.406       .  A
C1320      H1327   1.084       .  S
C1321      C1322   1.409       .  A
C1322      C1323   1.411       .  A
C1322      C1329   1.512       .  S
C1323      C1324   1.415       .  A
C1323      H1328   1.082       .  S
C1325      C1326   1.514       .  S
C1326      F1330   1.378       .  S
C1326      F1332   1.385       .  S
C1329      F1333   1.378       .  S
C1329      F1335   1.385       .  S
C1336      C1337   1.405       .  A
C1336      C1341   1.405       .  A
C1336      H1343   1.085       .  S
C1338      C1339   1.410       .  A
C1338      C1345   1.513       .  S
C1339      H1344   1.083       .  S
C1340      C1341   1.421       .  A
C1341      C1342   1.513       .  S
C1342      F1346   1.386       .  S
C1342      F1347   1.381       .  S
C1342      F1348   1.377       .  S
C1345      F1349   1.383       .  S
C1345      F1350   1.377       .  S
C1345      F1351   1.385       .  S
O1352     Co1372   1.997       .  S
O1353     Co1373   2.026       .  S
O1353      C1361   1.276       .  A
O1354     Co1374   1.963       .  S
O1354      C1362   1.260       .  A
O1356     Co1373   2.033       .  S
O1357     Co1372   2.118       .  S
O1357      C1363   1.297       .  A
O1359     Co1374   1.984       .  S
O1359      C1360   1.260       .  A
C1360      C1533   1.501       .  S
C1361      C1514   1.480       .  S
C1362      C1453   1.497       .  S
C1363      C1466   1.500       .  S
O1365      C1378   1.257   1_655  A
O1367     Co1375   2.014   1_556  S
O1368      C1380   1.252       .  A
O1369      C1379   1.266   1_565  A
O1370     Co1375   2.118   1_556  S
O1370      C1377   1.298   1_655  A
Co1372     O1376   2.007   1_565  S
C1379      C1498   1.495       .  S
C1380      C1482   1.478       .  S
C1381      C1469   1.483       .  S
C1381      C1382   1.402       .  A
C1381      C1386   1.402       .  A
C1382      C1383   1.401       .  A
C1382      H1387   1.081       .  S
C1383      C1450   1.490       .  S
C1383      C1384   1.406       .  A
C1384      C1385   1.411       .  A
C1384      H1388   1.079       .  S
C1385      C1394   1.514       .  S
C1385      C1386   1.416       .  A
C1386      H1389   1.077       .  S
C1390      C1421   1.478       .  S
C1390      C1391   1.396       .  A
C1390      C1395   1.403       .  A
C1391      C1392   1.397       .  A
C1391      H1396   1.081       .  S
C1392      C1437   1.485       .  S
C1392      C1393   1.405       .  A
C1393      C1394   1.411       .  A
C1393      H1397   1.077       .  S
C1394      C1395   1.417       .  A
C1395      H1398   1.079       .  S
C1399      C1530   1.501       .  S
C1399      C1400   1.413       .  A
C1399      C1404   1.408       .  A
C1400      C1401   1.413       .  A
C1400      H1405   1.081       .  S
C1401      C1517   1.507       .  S
C1401      C1402   1.406       .  A
C1402      C1403   1.414       .  A
C1402      H1406   1.072       .  S
C1403      C1412   1.519       .  S
C1403      C1404   1.407       .  A
C1404      H1407   1.079       .  S
C1408      C1501   1.522       .  S
C1408      C1409   1.418       .  A
C1408      C1413   1.417       .  A
C1409      C1410   1.411       .  A
C1409      H1414   1.074       .  S
C1410      C1485   1.503       .  S
C1410      C1411   1.399       .  A
C1411      C1412   1.404       .  A
C1411      H1415   1.070       .  S
C1412      C1413   1.415       .  A
C1413      H1416   1.078       .  S
C1417      C1422   1.403       .  A
C1417      H1424   1.084       .  S
C1418      C1419   1.413       .  A
C1419      C1420   1.411       .  A
C1419      C1426   1.516       .  S
C1420      C1421   1.405       .  A
C1420      H1425   1.083       .  S
C1422      C1423   1.520       .  S
C1423      F1427   1.385       .  S
C1423      F1428   1.383       .  S
C1423      F1429   1.383       .  S
C1426      F1430   1.383       .  S
C1426      F1431   1.382       .  S
C1426      F1432   1.384       .  S
C1433      C1434   1.410       .  A
C1433      C1438   1.407       .  A
C1433      H1440   1.082       .  S
C1435      C1436   1.403       .  A
C1435      C1442   1.508       .  S
C1436      H1441   1.083       .  S
C1437      C1438   1.417       .  A
C1438      C1439   1.521       .  S
C1439      F1443   1.385       .  S
C1439      F1444   1.383       .  S
C1439      F1445   1.381       .  S
C1442      F1446   1.378       .  S
C1442      F1447   1.381       .  S
C1442      F1448   1.385       .  S
C1449      C1450   1.399       .  A
C1449      C1454   1.401       .  A
C1449      H1456   1.083       .  S
C1451      C1452   1.413       .  A
C1451      C1458   1.517       .  S
C1452      H1457   1.083       .  S
C1453      C1454   1.425       .  A
C1454      C1455   1.517       .  S
C1455      F1459   1.385       .  S
C1455      F1460   1.384       .  S
C1455      F1461   1.383       .  S
C1458      F1462   1.380       .  S
C1458      F1463   1.383       .  S
C1458      F1464   1.384       .  S
C1465      C1470   1.404       .  A
C1465      H1472   1.082       .  S
C1466      C1467   1.429       .  A
C1467      C1468   1.412       .  A
C1467      C1474   1.518       .  S
C1468      C1469   1.400       .  A
C1468      H1473   1.083       .  S
C1470      C1471   1.518       .  S
C1471      F1475   1.385       .  S
C1471      F1476   1.383       .  S
C1471      F1477   1.380       .  S
C1474      F1478   1.382       .  S
C1474      F1479   1.380       .  S
C1474      F1480   1.385       .  S
C1481      C1482   1.400       .  A
C1481      C1486   1.399       .  A
C1481      H1488   1.080       .  S
C1483      C1484   1.404       .  A
C1483      C1490   1.515       .  S
C1484      H1489   1.083       .  S
C1485      C1486   1.418       .  A
C1486      C1487   1.511       .  S
C1487      F1491   1.380       .  S
C1487      F1493   1.386       .  S
C1490      F1494   1.380       .  S
C1490      F1496   1.385       .  S
C1497      C1498   1.399       .  A
C1497      C1502   1.398       .  A
C1497      H1504   1.082       .  S
C1499      C1500   1.416       .  A
C1499      C1506   1.519       .  S
C1500      C1501   1.418       .  A
C1500      H1505   1.082       .  S
C1502      C1503   1.510       .  S
C1503      F1509   1.380       .  S
C1506      F1510   1.384       .  S
C1513      C1518   1.406       .  A
C1513      H1520   1.084       .  S
C1514      C1515   1.409       .  A
C1515      C1516   1.411       .  A
C1515      C1522   1.512       .  S
C1516      C1517   1.415       .  A
C1516      H1521   1.082       .  S
C1518      C1519   1.514       .  S
C1519      F1523   1.378       .  S
C1519      F1525   1.385       .  S
C1522      F1526   1.378       .  S
C1522      F1528   1.385       .  S
C1529      C1530   1.405       .  A
C1529      C1534   1.405       .  A
C1529      H1536   1.085       .  S
C1531      C1532   1.410       .  A
C1531      C1538   1.513       .  S
C1532      H1537   1.083       .  S
C1533      C1534   1.421       .  A
C1534      C1535   1.513       .  S
C1535      F1539   1.386       .  S
C1535      F1540   1.381       .  S
C1535      F1541   1.377       .  S
C1538      F1542   1.383       .  S
C1538      F1543   1.377       .  S
C1538      F1544   1.385       .  S
