geometry optimzed in LAMMPS
_audit_creation_date              2020-12-01 
_audit_creation_method            'lammps2cif' 
_symmetry_space_group_name_H-M    'P1' 
_symmetry_Int_Tables_number       1 
_symmetry_cell_setting            triclinic 
loop_ 
_symmetry_equiv_pos_as_xyz 
  x,y,z 
_cell_length_a                    34.87627947 
_cell_length_b                    35.4832066886489 
_cell_length_c                    21.5161551431762 
_cell_angle_alpha                 90.14999782777338 
_cell_angle_beta                  90.06692154105677 
_cell_angle_gamma                 119.82543184714761 
loop_ 
_atom_site_label 
_atom_site_type_symbol 
_atom_site_fract_x 
_atom_site_fract_y 
_atom_site_fract_z 
_atom_site_charge 
Fe1        Fe  0.36579101  0.22569324  0.44950866     1.65800
Fe2        Fe  0.35850633  0.12807382  0.45379673     1.73200
Fe3        Fe  0.26644600  0.13577530  0.44278778     1.54400
O4          O  0.26733170  0.16796289  0.52264965    -0.82400
O5          O  0.31064062  0.07862215  0.39460191    -0.80700
O6          O  0.31674964  0.23474048  0.49514039    -0.84900
O7          O  0.33976850  0.23057687  0.36713301    -0.79700
O8          O  0.25464746  0.07956486  0.49363094    -0.81500
O9          O  0.39542494  0.15631928  0.37651248    -0.84200
C10         C  0.29917717  0.21799791  0.35730370     0.96500
C11         C  0.27946577  0.20800889  0.51900445     1.04000
O12         O  0.33035771  0.16321191  0.44593116    -1.13200
O13         O  0.41364294  0.17455222  0.50765246    -0.75700
O14         O  0.38995668  0.21932472  0.53324905    -0.79100
O15         O  0.26815905  0.18623171  0.38694088    -0.79800
C16         C  0.42072630  0.21031605  0.53190785     0.95400
O17         O  0.41885905  0.22607589  0.39829685    -0.77800
O18         O  0.32079103  0.10014041  0.53188647    -0.83000
C19         C  0.28096461  0.07748898  0.35825437     0.98100
C20         C  0.28080454  0.07090836  0.52382042     1.04000
O21         O  0.26639463  0.10388239  0.36366439    -0.78600
C22         C  0.42218683  0.19654540  0.36817827     1.02300
C23         C  0.45565097  0.99383788  0.38141294     0.02400
C24         C  0.99101861  0.03573576  0.37064567    -0.13700
C25         C  0.03458275  0.04538768  0.38099528    -0.00100
C26         C  0.04285075  0.01143099  0.39628202    -0.12200
C27         C  0.00755231  0.46848412  0.40154803     0.02400
C28         C  0.46416540  0.45999306  0.39192570    -0.11600
H29         H  0.98423920  0.06217263  0.36401214     0.08000
H30         H  0.07567946  0.01901700  0.41064175     0.05600
H31         H  0.43671649  0.42777579  0.40107683     0.05400
C32         C  0.24350403  0.45438811  0.06471132     0.79500
N33         N  0.24395642  0.49348431  0.06478351    -0.78800
C34         C  0.27193720  0.02560217  0.52485872     0.82000
N35         N  0.29891398  0.01855085  0.48783495    -0.78700
C36         C  0.29921724  0.48086479  0.48853966     0.82100
N37         N  0.27184235  0.44907262  0.02722394    -0.80400
C38         C  0.20465939  0.25204185  0.06182994     0.79500
N39         N  0.24114615  0.24687042  0.06234069    -0.78800
C40         C  0.24386487  0.21910560  0.52063192     0.82000
N41         N  0.21028164  0.19683262  0.48016949    -0.78700
C42         C  0.17419243  0.20151539  0.47940194     0.82100
N43         N  0.17145710  0.22875209  0.02081263    -0.80400
C44         C  0.03957862  0.29020688  0.07237709     0.79500
N45         N  0.99999612  0.25157544  0.57184941    -0.78800
C46         C  0.46608479  0.24809854  0.53511936     0.82000
N47         N  0.47196860  0.28278166  0.50164411    -0.78700
C48         C  0.01075372  0.32019929  0.50150682     0.82100
N49         N  0.04412757  0.32386285  0.03713132    -0.80400
Fe50       Fe  0.13896892  0.36938068  0.20207596     1.65800
Fe51       Fe  0.12998729  0.27097236  0.20202849     1.73200
Fe52       Fe  0.22970133  0.35931594  0.19675121     1.54400
O53         O  0.23292853  0.39231486  0.11738693    -0.82400
O54         O  0.17777271  0.26057904  0.24896963    -0.80700
O55         O  0.18846920  0.41822472  0.14449197    -0.84900
O56         O  0.17533127  0.39792306  0.28111055    -0.79700
O57         O  0.22676729  0.30784381  0.14091545    -0.81500
O58         O  0.10686135  0.27977957  0.28478492    -0.84200
C59         C  0.21587668  0.42586466  0.27428275     0.96500
C60         C  0.21957635  0.41965763  0.11115477     1.04000
O61         O  0.16628111  0.33335070  0.19689164    -1.13200
O62         O  0.07825364  0.27221714  0.14992192    -0.75700
O63         O  0.10377581  0.34116057  0.12347300    -0.79100
O64         O  0.24184210  0.41556419  0.24717401    -0.79800
C65         C  0.07595874  0.30103172  0.11723012     0.95400
O66         O  0.08265926  0.32313283  0.25448863    -0.77800
O67         O  0.15511817  0.26364865  0.12044208    -0.83000
C68         C  0.21449833  0.28765736  0.27397113     0.98100
C69         C  0.19565976  0.27639527  0.11030182     1.04000
O70         O  0.22548221  0.32730456  0.27777688    -0.78600
C71         C  0.07573441  0.28806013  0.28089365     1.02300
C72         C  0.49270797  0.02956357  0.14738234     0.02400
C73         C  0.45911589  0.48628453  0.14160519    -0.13700
C74         C  0.46953718  0.45297455  0.14026330    -0.00100
C75         C  0.51357226  0.46301864  0.13430803    -0.12200
C76         C  0.04754122  0.50615759  0.13812720     0.02400
C77         C  0.03705499  0.03923109  0.14495745    -0.11600
H78         H  0.42482456  0.47806697  0.14454594     0.08000
H79         H  0.52169681  0.43725820  0.13399824     0.05600
H80         H  0.06355784  0.07205745  0.15386946     0.05400
C81         C  0.26005880  0.04414843  0.30898478     0.79500
N82         N  0.23682576  0.05211079  0.26532162    -0.78800
C83         C  0.20926040  0.52090497  0.22542551     0.82000
N84         N  0.20425665  0.48095423  0.23029882    -0.78700
C85         C  0.22717163  0.47174700  0.27252319     0.82100
N86         N  0.25510888  0.50331584  0.31327668    -0.80400
C87         C  0.45827091  0.20675598  0.32297241     0.79500
N88         N  0.45384085  0.17296624  0.28738349    -0.78800
C89         C  0.48668688  0.17684551  0.24985167     0.82000
N90         N  0.02487013  0.21506597  0.24932924    -0.78700
C91         C  0.03066544  0.24972747  0.28351761     0.82100
N92         N  0.99720157  0.24580320  0.32132945    -0.80400
C93         C  0.29024776  0.24386780  0.31181538     0.79500
N94         N  0.25266964  0.24731980  0.31245937    -0.78800
C95         C  0.25115832  0.27824442  0.27603517     0.82000
N96         N  0.28647809  0.30475656  0.24075172    -0.78700
C97         C  0.32288049  0.30080425  0.23902326     0.82100
N98         N  0.32486542  0.27094284  0.27540340    -0.80400
C99         C  0.45366221  0.09647413  0.23856733    -0.27000
C100        C  0.48296161  0.13826335  0.21610258    -0.15100
C101        C  0.00954945  0.14181331  0.16407379     0.35600
C102        C  0.00845380  0.10516517  0.13900601    -0.26400
C103        C  0.48286092  0.06433126  0.16545701    -0.15700
C104        C  0.45351401  0.05951239  0.21428046     0.36600
N105        N  0.42486289  0.01766064  0.24075458    -0.89900
H106        H  0.43242866  0.09269952  0.27755821     0.17800
H107        H  0.03021920  0.10905280  0.10067787     0.17700
N108        N  0.03914252  0.18219431  0.13599456    -0.89000
H109        H  0.40609268  0.02002998  0.27681425     0.35100
H110        H  0.44473941  0.00644338  0.26017906     0.40200
H111        H  0.06473394  0.19999745  0.16738770     0.39800
H112        H  0.02138103  0.19781632  0.12511018     0.34700
C113        C  0.16318384  0.52033986  0.13555021    -0.27000
C114        C  0.17195182  0.52378764  0.19962271    -0.15100
C115        C  0.14066510  0.02253125  0.24183126     0.35600
C116        C  0.10103428  0.01808332  0.21952738    -0.26400
C117        C  0.09194078  0.51476201  0.15577837    -0.14900
C118        C  0.12337517  0.51615736  0.11284897     0.36600
N119        N  0.11560535  0.51230145  0.04686900    -0.89900
H120        H  0.18683504  0.52006753  0.10330826     0.17800
H121        H  0.07627111  0.01571917  0.25218383     0.17700
N122        N  0.14904359  0.02444671  0.30762036    -0.89000
H123        H  0.13957013  0.54123470  0.02654618     0.35100
H124        H  0.08502163  0.50925185  0.03586783     0.40200
H125        H  0.15173194  0.99737929  0.31987716     0.39800
H126        H  0.12259534  0.02250871  0.33267386     0.34700
C127        C  0.39664627  0.38768089  0.12481742    -0.27000
C128        C  0.43534369  0.40944284  0.15992213    -0.15100
C129        C  0.43828674  0.39211664  0.21775069     0.35600
C130        C  0.40207604  0.35448598  0.24011149    -0.26400
C131        C  0.36246200  0.33387936  0.20652973    -0.15700
C132        C  0.36039117  0.34984756  0.14698649     0.36600
N133        N  0.32248457  0.32833986  0.10741286    -0.89900
H134        H  0.39435786  0.40065505  0.08026119     0.17800
H135        H  0.40407836  0.34295500  0.28596996     0.17700
N136        N  0.47657416  0.41339079  0.25659021    -0.89000
H137        H  0.30876865  0.34853010  0.10305567     0.35100
H138        H  0.29901155  0.29942311  0.12750778     0.40200
H139        H  0.48408841  0.44549075  0.26399422     0.39800
H140        H  0.50281774  0.41321080  0.23368115     0.34700
C141        C  0.05906707  0.11323827  0.44155116    -0.27000
C142        C  0.06817331  0.09110503  0.39474722    -0.15100
C143        C  0.10936706  0.11246169  0.36496244     0.35600
C144        C  0.14305267  0.15163725  0.38944769    -0.26400
C145        C  0.13563619  0.17066131  0.44194780    -0.15700
C146        C  0.09201626  0.15372811  0.96385810     0.36600
N147        N  0.08161888  0.17632783  0.01039822    -0.89900
H148        H  0.02666458  0.09807450  0.96275287     0.17800
H149        H  0.17580611  0.16598238  0.36935014     0.17700
N150        N  0.11720891  0.09488569  0.30987110    -0.89000
H151        H  0.04771374  0.15960957  0.01943927     0.35100
H152        H  0.08813259  0.20598260  0.99124151     0.40200
H153        H  0.12243828  0.11647618  0.27363879     0.39800
H154        H  0.14695315  0.09501332  0.31621293     0.34700
C155        C  0.48643588  0.41084906  0.98036268    -0.27000
C156        C  0.01343248  0.43351431  0.42963763    -0.15100
C157        C  0.04183175  0.41972759  0.40428837     0.35600
C158        C  0.04157418  0.38291181  0.42901041    -0.26400
C159        C  0.01234981  0.35917570  0.47663881    -0.15700
C160        C  0.48481462  0.37323184  0.00255337     0.36600
N161        N  0.45513448  0.34897089  0.05164679    -0.89900
H162        H  0.46515481  0.42146310  0.00139494     0.17800
H163        H  0.06311352  0.37193989  0.40997205     0.17700
N164        N  0.07023434  0.44245601  0.35326622    -0.89000
H165        H  0.42318933  0.34143594  0.03875235     0.35100
H166        H  0.46457517  0.36846930  0.09128223     0.40200
H167        H  0.05061681  0.44089414  0.31575390     0.39800
H168        H  0.08766751  0.42705310  0.33896911     0.34700
C169        C  0.41739354  0.01663965  0.95417244    -0.27000
C170        C  0.41376926  0.98924599  0.40475250    -0.15100
C171        C  0.37156882  0.45554302  0.38625550     0.35600
C172        C  0.33375144  0.45236168  0.41497399    -0.26400
C173        C  0.33807268  0.98094730  0.46322468    -0.15700
C174        C  0.38049404  0.01207202  0.98501102     0.36600
N175        N  0.38764296  0.03915142  0.03883990    -0.89900
H176        H  0.44963278  0.04062343  0.97157745     0.17800
H177        H  0.30106991  0.42797793  0.39954763     0.17700
N178        N  0.36733209  0.42454136  0.33968619    -0.89000
H179        H  0.40746890  0.03376317  0.06994607     0.35100
H180        H  0.35851903  0.03002846  0.06319493     0.40200
H181        H  0.37913647  0.44095765  0.29774170     0.39800
H182        H  0.33406837  0.40154735  0.33241153     0.34700
Fe183      Fe  0.36579104  0.22569328  0.94950885     1.65800
Fe184      Fe  0.35850638  0.12807387  0.95379695     1.73200
Fe185      Fe  0.26644606  0.13577533  0.94278804     1.54400
O186        O  0.26733185  0.16796291  0.02264996    -0.82400
O187        O  0.31064063  0.07862219  0.89460229    -0.80700
O188        O  0.31674967  0.23474050  0.99514056    -0.84900
O189        O  0.33976857  0.23057686  0.86713309    -0.79700
O190        O  0.25464756  0.07956487  0.99363109    -0.81500
O191        O  0.39542490  0.15631936  0.87651260    -0.84200
C192        C  0.29917724  0.21799794  0.85730385     0.96500
C193        C  0.27946586  0.20800889  0.01900473     1.04000
O194        O  0.33035776  0.16321195  0.94593139    -1.13200
O195        O  0.41364300  0.17455227  0.00765265    -0.75700
O196        O  0.38995674  0.21932479  0.03324921    -0.79100
O197        O  0.26815914  0.18623178  0.88694114    -0.79800
C198        C  0.42072637  0.21031613  0.03190794     0.95400
O199        O  0.41885909  0.22607595  0.89829716    -0.77800
O200        O  0.32079112  0.10014039  0.03188668    -0.83000
C201        C  0.28096461  0.07748899  0.85825471     0.98100
C202        C  0.28080462  0.07090835  0.02382061     1.04000
O203        O  0.26639461  0.10388240  0.86366469    -0.78600
C204        C  0.42218684  0.19654549  0.86817850     1.02300
C205        C  0.45565077  0.99383771  0.88141314     0.02400
C206        C  0.99101867  0.03573574  0.87064579    -0.13700
C207        C  0.03458280  0.04538761  0.88099539    -0.00100
C208        C  0.04285070  0.01143087  0.89628213    -0.12200
C209        C  0.00755221  0.46848404  0.90154805     0.02400
C210        C  0.46416525  0.45999293  0.89192590    -0.11600
H211        H  0.98423931  0.06217263  0.86401221     0.08000
H212        H  0.07567939  0.01901681  0.91064188     0.05600
H213        H  0.43671637  0.42777563  0.90107694     0.05400
C214        C  0.24350421  0.45438816  0.56471136     0.79500
N215        N  0.24395650  0.49348431  0.56478338    -0.78800
C216        C  0.27193724  0.02560216  0.02485896     0.82000
N217        N  0.29891395  0.01855077  0.98783515    -0.78700
C218        C  0.29921710  0.48086475  0.98853970     0.82100
N219        N  0.27184258  0.44907270  0.52722402    -0.80400
C220        C  0.20465940  0.25204196  0.56182988     0.79500
N221        N  0.24114612  0.24687045  0.56234056    -0.78800
C222        C  0.24386493  0.21910554  0.02063213     0.82000
N223        N  0.21028172  0.19683251  0.98016968    -0.78700
C224        C  0.17419254  0.20151531  0.97940196     0.82100
N225        N  0.17145704  0.22875217  0.52081268    -0.80400
C226        C  0.03957888  0.29020696  0.57237703     0.79500
N227        N  0.99999587  0.25157537  0.07184948    -0.78800
C228        C  0.46608485  0.24809859  0.03511930     0.82000
N229        N  0.47196867  0.28278172  0.00164408    -0.78700
C230        C  0.01075345  0.32019926  0.00150705     0.82100
N231        N  0.04412781  0.32386292  0.53713124    -0.80400
Fe232      Fe  0.13896912  0.36938081  0.70207620     1.65800
Fe233      Fe  0.12998745  0.27097247  0.70202860     1.73200
Fe234      Fe  0.22970153  0.35931603  0.69675134     1.54400
O235        O  0.23292877  0.39231497  0.61738711    -0.82400
O236        O  0.17777287  0.26057921  0.74896974    -0.80700
O237        O  0.18846940  0.41822480  0.64449211    -0.84900
O238        O  0.17533149  0.39792319  0.78111080    -0.79700
O239        O  0.22676748  0.30784393  0.64091549    -0.81500
O240        O  0.10686138  0.27977954  0.78478495    -0.84200
C241        C  0.21587690  0.42586475  0.77428293     0.96500
C242        C  0.21957656  0.41965771  0.61115490     1.04000
O243        O  0.16628129  0.33335080  0.69689187    -1.13200
O244        O  0.07825385  0.27221725  0.64992199    -0.75700
O245        O  0.10377597  0.34116069  0.62347324    -0.79100
O246        O  0.24184227  0.41556423  0.74717416    -0.79800
C247        C  0.07595896  0.30103182  0.61723020     0.95400
O248        O  0.08265946  0.32313300  0.75448884    -0.77800
O249        O  0.15511835  0.26364884  0.62044219    -0.83000
C250        C  0.21449851  0.28765748  0.77397123     0.98100
C251        C  0.19565991  0.27639545  0.61030183     1.04000
O252        O  0.22548249  0.32730470  0.77777701    -0.78600
C253        C  0.07573451  0.28806021  0.78089369     1.02300
C254        C  0.49270792  0.02956359  0.64738268     0.02400
C255        C  0.45911577  0.48628454  0.64160535    -0.13700
C256        C  0.46953704  0.45297455  0.64026340    -0.00100
C257        C  0.51357212  0.46301863  0.63430818    -0.12200
C258        C  0.04754143  0.50615767  0.63812702     0.02400
C259        C  0.03705510  0.03923112  0.64495757    -0.11600
H260        H  0.42482443  0.47806697  0.64454601     0.08000
H261        H  0.52169665  0.43725818  0.63399826     0.05600
H262        H  0.06355795  0.07205746  0.65386962     0.05400
C263        C  0.26005889  0.04414848  0.80898503     0.79500
N264        N  0.23682588  0.05211086  0.76532185    -0.78800
C265        C  0.20926052  0.52090498  0.72542565     0.82000
N266        N  0.20425682  0.48095427  0.73029897    -0.78700
C267        C  0.22717186  0.47174709  0.77252330     0.82100
N268        N  0.25510898  0.50331593  0.81327690    -0.80400
C269        C  0.45827094  0.20675608  0.82297264     0.79500
N270        N  0.45384082  0.17296635  0.78738365    -0.78800
C271        C  0.48668683  0.17684561  0.74985179     0.82000
N272        N  0.02487022  0.21506611  0.74932927    -0.78700
C273        C  0.03066551  0.24972760  0.78351760     0.82100
N274        N  0.99720165  0.24580329  0.82132953    -0.80400
C275        C  0.29024780  0.24386779  0.81181546     0.79500
N276        N  0.25266970  0.24731982  0.81245942    -0.78800
C277        C  0.25115838  0.27824440  0.77603511     0.82000
N278        N  0.28647807  0.30475637  0.74075141    -0.78700
C279        C  0.32288045  0.30080403  0.73902299     0.82100
N280        N  0.32486542  0.27094275  0.77540338    -0.80400
C281        C  0.45366213  0.09647423  0.73856736    -0.27000
C282        C  0.48296161  0.13826345  0.71610273    -0.15100
C283        C  0.00954959  0.14181342  0.66407377     0.35600
C284        C  0.00845390  0.10516526  0.63900593    -0.26400
C285        C  0.48286095  0.06433133  0.66545733    -0.15700
C286        C  0.45351392  0.05951247  0.71428058     0.36600
N287        N  0.42486257  0.01766073  0.74075459    -0.89900
H288        H  0.43242849  0.09269961  0.77755810     0.17800
H289        H  0.03021922  0.10905286  0.60067770     0.17700
N290        N  0.03914273  0.18219446  0.63599465    -0.89000
H291        H  0.40609227  0.02003005  0.77681397     0.35100
H292        H  0.44473898  0.00644333  0.76017930     0.40200
H293        H  0.06473403  0.19999755  0.66738782     0.39800
H294        H  0.02138126  0.19781655  0.62511016     0.34700
C295        C  0.16318405  0.52033991  0.63555031    -0.27000
C296        C  0.17195193  0.52378760  0.69962280    -0.15100
C297        C  0.14066512  0.02253119  0.74183137     0.35600
C298        C  0.10103430  0.01808323  0.71952744    -0.26400
C299        C  0.09194096  0.51476205  0.65577830    -0.14900
C300        C  0.12337543  0.51615748  0.61284899     0.36600
N301        N  0.11560582  0.51230174  0.54686899    -0.89900
H302        H  0.18683530  0.52006760  0.60330844     0.17800
H303        H  0.07627110  0.01571905  0.75218385     0.17700
N304        N  0.14904353  0.02444663  0.80762050    -0.89000
H305        H  0.13957057  0.54123499  0.52654640     0.35100
H306        H  0.08502198  0.50925204  0.53586767     0.40200
H307        H  0.15173195  0.99737924  0.81987730     0.39800
H308        H  0.12259525  0.02250855  0.83267390     0.34700
C309        C  0.39664623  0.38768073  0.62481731    -0.27000
C310        C  0.43534356  0.40944284  0.65992220    -0.15100
C311        C  0.43828656  0.39211671  0.71775085     0.35600
C312        C  0.40207593  0.35448596  0.74011153    -0.26400
C313        C  0.36246198  0.33387914  0.70652954    -0.15700
C314        C  0.36039123  0.34984726  0.64698619     0.36600
N315        N  0.32248480  0.32833926  0.60741230    -0.89900
H316        H  0.39435785  0.40065486  0.58026103     0.17800
H317        H  0.40407824  0.34295502  0.78597005     0.17700
N318        N  0.47657392  0.41339102  0.75659046    -0.89000
H319        H  0.30876867  0.34852937  0.60305459     0.35100
H320        H  0.29901189  0.29942262  0.62750723     0.40200
H321        H  0.48408810  0.44549086  0.76399426     0.39800
H322        H  0.50281762  0.41321105  0.73368133     0.34700
C323        C  0.05906722  0.11323822  0.94155126    -0.27000
C324        C  0.06817342  0.09110497  0.89474731    -0.15100
C325        C  0.10936714  0.11246164  0.86496247     0.35600
C326        C  0.14305279  0.15163718  0.88944773    -0.26400
C327        C  0.13563633  0.17066123  0.94194785    -0.15700
C328        C  0.09201612  0.15372816  0.46385804     0.36600
N329        N  0.08161871  0.17632779  0.51039826    -0.89900
H330        H  0.02666444  0.09807454  0.46275279     0.17800
H331        H  0.17580623  0.16598226  0.86935019     0.17700
N332        N  0.11720901  0.09488559  0.80987117    -0.89000
H333        H  0.04771362  0.15960957  0.51943926     0.35100
H334        H  0.08813249  0.20598267  0.49124168     0.40200
H335        H  0.12243840  0.11647608  0.77363875     0.39800
H336        H  0.14695315  0.09501319  0.81621304     0.34700
C337        C  0.48643572  0.41084906  0.48036257    -0.27000
C338        C  0.01343234  0.43351420  0.92963762    -0.15100
C339        C  0.04183159  0.41972741  0.90428841     0.35600
C340        C  0.04157396  0.38291163  0.92901054    -0.26400
C341        C  0.01234961  0.35917565  0.97663902    -0.15700
C342        C  0.48481437  0.37323178  0.50255319     0.36600
N343        N  0.45513407  0.34897076  0.55164643    -0.89900
H344        H  0.46515458  0.42146307  0.50139471     0.17800
H345        H  0.06311327  0.37193962  0.90997230     0.17700
N346        N  0.07023433  0.44245585  0.85326640    -0.89000
H347        H  0.42318904  0.34143594  0.53875187     0.35100
H348        H  0.46457469  0.36846917  0.59128193     0.40200
H349        H  0.05061695  0.44089419  0.81575398     0.39800
H350        H  0.08766741  0.42705286  0.83896933     0.34700
C351        C  0.41739374  0.01664008  0.45417193    -0.27000
C352        C  0.41376907  0.98924571  0.90475285    -0.15100
C353        C  0.37156862  0.45554289  0.88625557     0.35600
C354        C  0.33375123  0.45236158  0.91497395    -0.26400
C355        C  0.33807249  0.98094713  0.96322476    -0.15700
C356        C  0.38049426  0.01207238  0.48501066     0.36600
N357        N  0.38764317  0.03915197  0.53883933    -0.89900
H358        H  0.44963300  0.04062399  0.47157675     0.17800
H359        H  0.30106970  0.42797797  0.89954741     0.17700
N360        N  0.36733193  0.42454135  0.83968607    -0.89000
H361        H  0.40746932  0.03376398  0.56994565     0.35100
H362        H  0.35851930  0.03002906  0.56319442     0.40200
H363        H  0.37913644  0.44095776  0.79774176     0.39800
H364        H  0.33406821  0.40154745  0.83241122     0.34700
Fe365      Fe  0.36578395  0.72568695  0.44951839     1.65800
Fe366      Fe  0.35850266  0.62806689  0.45380657     1.73200
Fe367      Fe  0.26644123  0.63576811  0.44275911     1.54400
O368        O  0.26730131  0.66794838  0.52261554    -0.82400
O369        O  0.31064934  0.57861900  0.39459562    -0.80700
O370        O  0.31673520  0.73472919  0.49513707    -0.84900
O371        O  0.33977339  0.73058330  0.36713588    -0.79700
O372        O  0.25463300  0.57955521  0.49360011    -0.81500
O373        O  0.39543718  0.65632028  0.37653723    -0.84200
C374        C  0.29918205  0.71799821  0.35729065     0.96500
C375        C  0.27944386  0.70799710  0.51898160     1.04000
O376        O  0.33035297  0.66320556  0.44592921    -1.13200
O377        O  0.41363101  0.67454053  0.50768286    -0.75700
O378        O  0.38993554  0.71930708  0.53326630    -0.79100
O379        O  0.26816133  0.68622506  0.38691233    -0.79800
C380        C  0.42070853  0.71030277  0.53193692     0.95400
O381        O  0.41885948  0.72607551  0.39831748    -0.77800
O382        O  0.32076955  0.60012289  0.53187928    -0.83000
C383        C  0.28097824  0.57748766  0.35824029     0.98100
C384        C  0.28078334  0.57089379  0.52379759     1.04000
O385        O  0.26641122  0.60388382  0.36364023    -0.78600
C386        C  0.42219351  0.69654761  0.36820112     1.02300
C387        C  0.45563679  0.49383101  0.38142693     0.02400
C388        C  0.99099928  0.53573408  0.37067397    -0.13700
C389        C  0.03456576  0.54539185  0.38101577    -0.00100
C390        C  0.04284248  0.51143773  0.39628211    -0.12200
C391        C  0.00755445  0.96848165  0.40156323     0.02400
C392        C  0.46417121  0.95999687  0.39193096    -0.11600
H393        H  0.98421378  0.56216809  0.36405399     0.08000
H394        H  0.07567318  0.51902726  0.41063650     0.05600
H395        H  0.43671819  0.92778353  0.40109034     0.05400
C396        C  0.24353198  0.95440111  0.06472790     0.79500
N397        N  0.24398198  0.99349656  0.06480420    -0.78800
C398        C  0.27191022  0.52558598  0.52483261     0.82000
N399        N  0.29888475  0.51853073  0.48780893    -0.78700
C400        C  0.29924904  0.98088632  0.48856196     0.82100
N401        N  0.27187381  0.94909023  0.02724165    -0.80400
C402        C  0.20464963  0.75203837  0.06183801     0.79500
N403        N  0.24113356  0.74686215  0.06233826    -0.78800
C404        C  0.24384990  0.71910418  0.52061344     0.82000
N405        N  0.21026654  0.69684216  0.48014604    -0.78700
C406        C  0.17417879  0.70152799  0.47939096     0.82100
N407        N  0.17144637  0.72875820  0.02081737    -0.80400
C408        C  0.03956554  0.79019787  0.07240462     0.79500
N409        N  0.99998379  0.75156386  0.57187645    -0.78800
C410        C  0.46606553  0.74808977  0.53516221     0.82000
N411        N  0.47194288  0.78277709  0.50170420    -0.78700
C412        C  0.01072694  0.82019522  0.50156663     0.82100
N413        N  0.04410691  0.82385608  0.03717271    -0.80400
Fe414      Fe  0.13897549  0.86938422  0.20206624     1.65800
Fe415      Fe  0.12998417  0.77097181  0.20205608     1.73200
Fe416      Fe  0.22970582  0.85931445  0.19676357     1.54400
O417        O  0.23294787  0.89232064  0.11739814    -0.82400
O418        O  0.17776471  0.76057446  0.24900226    -0.80700
O419        O  0.18848019  0.91822459  0.14448303    -0.84900
O420        O  0.17533614  0.89793489  0.28109988    -0.79700
O421        O  0.22676402  0.80783898  0.14092682    -0.81500
O422        O  0.10686135  0.77979445  0.28480573    -0.84200
C423        C  0.21588371  0.92587246  0.27427762     0.96500
C424        C  0.21959631  0.91966366  0.11116077     1.04000
O425        O  0.16628482  0.83335112  0.19689960    -1.13200
O426        O  0.07825076  0.77221433  0.14994415    -0.75700
O427        O  0.10378298  0.84115327  0.12346403    -0.79100
O428        O  0.24184952  0.91556541  0.24718433    -0.79800
C429        C  0.07595666  0.80102465  0.11724140     0.95400
O430        O  0.08266221  0.82314394  0.25448141    -0.77800
O431        O  0.15511168  0.76363287  0.12047746    -0.83000
C432        C  0.21449546  0.78765457  0.27398790     0.98100
C433        C  0.19565325  0.77638591  0.11032304     1.04000
O434        O  0.22547893  0.82730160  0.27779110    -0.78600
C435        C  0.07573457  0.78807436  0.28089983     1.02300
C436        C  0.49270417  0.52956471  0.14740373     0.02400
C437        C  0.45911691  0.98628590  0.14158328    -0.13700
C438        C  0.46953315  0.95297337  0.14024673    -0.00100
C439        C  0.51356629  0.96301144  0.13428765    -0.12200
C440        C  0.04753947  0.00614914  0.13809940     0.02400
C441        C  0.03705218  0.53923585  0.14498447    -0.11600
H442        H  0.42482671  0.97807231  0.14452511     0.08000
H443        H  0.52168607  0.93724768  0.13398043     0.05600
H444        H  0.06355290  0.57206300  0.15389806     0.05400
C445        C  0.26006956  0.54414486  0.30897594     0.79500
N446        N  0.23683383  0.55210780  0.26531889    -0.78800
C447        C  0.20926684  0.02091089  0.22541129     0.82000
N448        N  0.20427498  0.98096434  0.23027559    -0.78700
C449        C  0.22718384  0.97175676  0.27251002     0.82100
N450        N  0.25510615  0.00332225  0.31327901    -0.80400
C451        C  0.45827603  0.70676268  0.32298933     0.79500
N452        N  0.45384654  0.67297480  0.28739669    -0.78800
C453        C  0.48668943  0.67685706  0.24985542     0.82000
N454        N  0.02486979  0.71508095  0.24932540    -0.78700
C455        C  0.03066479  0.74974132  0.28351794     0.82100
N456        N  0.99720391  0.74581227  0.32134100    -0.80400
C457        C  0.29025077  0.74386696  0.31180354     0.79500
N458        N  0.25267132  0.74731652  0.31245405    -0.78800
C459        C  0.25115592  0.77824148  0.27603632     0.82000
N460        N  0.28647304  0.80475564  0.24075013    -0.78700
C461        C  0.32287663  0.80080531  0.23901466     0.82100
N462        N  0.32486610  0.77094433  0.27539060    -0.80400
C463        C  0.45366096  0.59648397  0.23857312    -0.27000
C464        C  0.48296457  0.63827278  0.21610942    -0.15100
C465        C  0.00955369  0.64181867  0.16408426     0.35600
C466        C  0.00845366  0.60516778  0.13901819    -0.26400
C467        C  0.48285601  0.56433402  0.16546864    -0.15700
C468        C  0.45350792  0.55951922  0.21428764     0.36600
N469        N  0.42484993  0.51766824  0.24075850    -0.89900
H470        H  0.43242625  0.59271132  0.27756145     0.17800
H471        H  0.03022035  0.60905324  0.10069270     0.17700
N472        N  0.03915238  0.68219791  0.13600659    -0.89000
H473        H  0.40607712  0.52003966  0.27681253     0.35100
H474        H  0.44472187  0.50644824  0.26019089     0.40200
H475        H  0.06474054  0.69999992  0.16740455     0.39800
H476        H  0.02139361  0.69782100  0.12511223     0.34700
C477        C  0.16318530  0.02033349  0.13552908    -0.27000
C478        C  0.17195189  0.02378165  0.19960270    -0.15100
C479        C  0.14067304  0.52255126  0.24185416     0.35600
C480        C  0.10104130  0.51810264  0.21955293    -0.26400
C481        C  0.09193764  0.01474854  0.15575219    -0.14900
C482        C  0.12337433  0.01614555  0.11282503     0.36600
N483        N  0.11560508  0.01228671  0.04684491    -0.89900
H484        H  0.18683952  0.02006572  0.10328843     0.17800
H485        H  0.07628055  0.51574254  0.25221055     0.17700
N486        N  0.14906115  0.52448360  0.30764248    -0.89000
H487        H  0.13956775  0.04122026  0.02652041     0.35100
H488        H  0.08501964  0.00923274  0.03584232     0.40200
H489        H  0.15175113  0.49741948  0.31991416     0.39800
H490        H  0.12261660  0.52255204  0.33269851     0.34700
C491        C  0.39663601  0.88768755  0.12481384    -0.27000
C492        C  0.43533607  0.90944669  0.15991426    -0.15100
C493        C  0.43828105  0.89212092  0.21774206     0.35600
C494        C  0.40207046  0.85449063  0.24010349    -0.26400
C495        C  0.36245584  0.83388368  0.20652249    -0.15700
C496        C  0.36038239  0.84985308  0.14698166     0.36600
N497        N  0.32247634  0.82834341  0.10740697    -0.89900
H498        H  0.39434642  0.90066222  0.08025861     0.17800
H499        H  0.40407386  0.84295901  0.28596097     0.17700
N500        N  0.47656963  0.91339534  0.25658049    -0.89000
H501        H  0.30875775  0.84853142  0.10304981     0.35100
H502        H  0.29900470  0.79942489  0.12749934     0.40200
H503        H  0.48408382  0.94549510  0.26398546     0.39800
H504        H  0.50281399  0.91321617  0.23367221     0.34700
C505        C  0.05905184  0.61324083  0.44158008    -0.27000
C506        C  0.06815336  0.59111047  0.39476636    -0.15100
C507        C  0.10933812  0.61247441  0.36495893     0.35600
C508        C  0.14302560  0.65165294  0.38943454    -0.26400
C509        C  0.13561693  0.67067506  0.44194361    -0.15700
C510        C  0.09200033  0.65373652  0.96387228     0.36600
N511        N  0.08160634  0.67633806  0.01041347    -0.89900
H512        H  0.02665346  0.59807247  0.96279583     0.17800
H513        H  0.17577473  0.66600241  0.36932167     0.17700
N514        N  0.11716711  0.59490368  0.30985162    -0.89000
H515        H  0.04770239  0.65961734  0.01946274     0.35100
H516        H  0.08811387  0.70598997  0.99125306     0.40200
H517        H  0.12238086  0.61649424  0.27362586     0.39800
H518        H  0.14691561  0.59503564  0.31616637     0.34700
C519        C  0.48641768  0.91084800  0.98038872    -0.27000
C520        C  0.01342525  0.93351134  0.42967049    -0.15100
C521        C  0.04182442  0.91971950  0.40433770     0.35600
C522        C  0.04156333  0.88290675  0.42907559    -0.26400
C523        C  0.01232679  0.85917076  0.47669135    -0.15700
C524        C  0.48478520  0.87322631  0.00258348     0.36600
N525        N  0.45508789  0.84895991  0.05165742    -0.89900
H526        H  0.46513425  0.92146430  0.00140696     0.17800
H527        H  0.06310527  0.87193300  0.41005265     0.17700
N528        N  0.07022407  0.94243453  0.35330705    -0.89000
H529        H  0.42314888  0.84143682  0.03874816     0.35100
H530        H  0.46452484  0.86844838  0.09130217     0.40200
H531        H  0.05060230  0.94085641  0.31578991     0.39800
H532        H  0.08765970  0.92703041  0.33902749     0.34700
C533        C  0.41736680  0.51661061  0.95419894    -0.27000
C534        C  0.41375043  0.48922794  0.40476772    -0.15100
C535        C  0.37158498  0.95555562  0.38626044     0.35600
C536        C  0.33377243  0.95237671  0.41499040    -0.26400
C537        C  0.33804398  0.48092458  0.46321569    -0.15700
C538        C  0.38046188  0.51204080  0.98502453     0.36600
N539        N  0.38760161  0.53911116  0.03886110    -0.89900
H540        H  0.44960359  0.54058982  0.97161832     0.17800
H541        H  0.30108850  0.92798782  0.39958012     0.17700
N542        N  0.36734127  0.92454521  0.33970129    -0.89000
H543        H  0.40741599  0.53371216  0.06997525     0.35100
H544        H  0.35847219  0.52998963  0.06320084     0.40200
H545        H  0.37913832  0.94095338  0.29774957     0.39800
H546        H  0.33407655  0.90154901  0.33243991     0.34700
Fe547      Fe  0.36578403  0.72568708  0.94951858     1.65800
Fe548      Fe  0.35850267  0.62806694  0.95380682     1.73200
Fe549      Fe  0.26644127  0.63576822  0.94275958     1.54400
O550        O  0.26730153  0.66794855  0.02261602    -0.82400
O551        O  0.31064930  0.57861906  0.89459586    -0.80700
O552        O  0.31673528  0.73472933  0.99513724    -0.84900
O553        O  0.33977347  0.73058347  0.86713609    -0.79700
O554        O  0.25463306  0.57955535  0.99360064    -0.81500
O555        O  0.39543720  0.65632035  0.87653750    -0.84200
C556        C  0.29918211  0.71799834  0.85729095     0.96500
C557        C  0.27944400  0.70799725  0.01898193     1.04000
O558        O  0.33035301  0.66320566  0.94592943    -1.13200
O559        O  0.41363104  0.67454057  0.00768308    -0.75700
O560        O  0.38993563  0.71930718  0.03326644    -0.79100
O561        O  0.26816143  0.68622520  0.88691274    -0.79800
C562        C  0.42070862  0.71030285  0.03193705     0.95400
O563        O  0.41885954  0.72607561  0.89831771    -0.77800
O564        O  0.32076964  0.60012292  0.03187959    -0.83000
C565        C  0.28097813  0.57748768  0.85824063     0.98100
C566        C  0.28078341  0.57089386  0.02379798     1.04000
O567        O  0.26641103  0.60388377  0.86364070    -0.78600
C568        C  0.42219356  0.69654769  0.86820141     1.02300
C569        C  0.45563656  0.49383083  0.88142725     0.02400
C570        C  0.99099928  0.53573409  0.87067391    -0.13700
C571        C  0.03456575  0.54539182  0.88101580    -0.00100
C572        C  0.04284241  0.51143765  0.89628218    -0.12200
C573        C  0.00755435  0.96848156  0.90156327     0.02400
C574        C  0.46417108  0.95999674  0.89193107    -0.11600
H575        H  0.98421384  0.56216814  0.86405392     0.08000
H576        H  0.07567309  0.51902712  0.91063661     0.05600
H577        H  0.43671810  0.92778338  0.90109044     0.05400
C578        C  0.24353212  0.95440119  0.56472788     0.79500
N579        N  0.24398196  0.99349657  0.56480395    -0.78800
C580        C  0.27191023  0.52558603  0.02483288     0.82000
N581        N  0.29888473  0.51853077  0.98780916    -0.78700
C582        C  0.29924888  0.98088618  0.98856201     0.82100
N583        N  0.27187407  0.94909041  0.52724173    -0.80400
C584        C  0.20464968  0.75203842  0.56183782     0.79500
N585        N  0.24113355  0.74686210  0.56233804    -0.78800
C586        C  0.24384998  0.71910425  0.02061369     0.82000
N587        N  0.21026663  0.69684218  0.98014627    -0.78700
C588        C  0.17417881  0.70152791  0.97939120     0.82100
N589        N  0.17144643  0.72875834  0.52081711    -0.80400
C590        C  0.03956578  0.79019803  0.57240456     0.79500
N591        N  0.99998356  0.75156370  0.07187658    -0.78800
C592        C  0.46606564  0.74808984  0.03516223     0.82000
N593        N  0.47194303  0.78277715  0.00170416    -0.78700
C594        C  0.01072664  0.82019508  0.00156682     0.82100
N595        N  0.04410719  0.82385623  0.53717259    -0.80400
Fe596      Fe  0.13897567  0.86938430  0.70206637     1.65800
Fe597      Fe  0.12998427  0.77097189  0.70205614     1.73200
Fe598      Fe  0.22970598  0.85931449  0.69676360     1.54400
O599        O  0.23294806  0.89232071  0.61739819    -0.82400
O600        O  0.17776477  0.76057450  0.74900232    -0.80700
O601        O  0.18848037  0.91822464  0.64448310    -0.84900
O602        O  0.17533638  0.89793504  0.78109991    -0.79700
O603        O  0.22676415  0.80783904  0.64092672    -0.81500
O604        O  0.10686150  0.77979460  0.78480583    -0.84200
C605        C  0.21588395  0.92587259  0.77427756     0.96500
C606        C  0.21959649  0.91966374  0.61116081     1.04000
O607        O  0.16628496  0.83335117  0.69689974    -1.13200
O608        O  0.07825089  0.77221449  0.64994425    -0.75700
O609        O  0.10378317  0.84115342  0.62346413    -0.79100
O610        O  0.24184975  0.91556550  0.74718434    -0.79800
C611        C  0.07595684  0.80102481  0.61724146     0.95400
O612        O  0.08266231  0.82314406  0.75448159    -0.77800
O613        O  0.15511178  0.76363302  0.62047738    -0.83000
C614        C  0.21449556  0.78765459  0.77398789     0.98100
C615        C  0.19565335  0.77638599  0.61032292     1.04000
O616        O  0.22547910  0.82730164  0.77779114    -0.78600
C617        C  0.07573467  0.78807445  0.78089996     1.02300
C618        C  0.49270404  0.52956470  0.64740406     0.02400
C619        C  0.45911683  0.98628593  0.64158351    -0.13700
C620        C  0.46953303  0.95297337  0.64024675    -0.00100
C621        C  0.51356614  0.96301140  0.63428750    -0.12200
C622        C  0.04753959  0.00614920  0.63809938     0.02400
C623        C  0.03705239  0.53923592  0.64498451    -0.11600
H624        H  0.42482663  0.97807236  0.64452535     0.08000
H625        H  0.52168590  0.93724762  0.63398013     0.05600
H626        H  0.06355311  0.57206305  0.65389822     0.05400
C627        C  0.26006954  0.54414490  0.80897621     0.79500
N628        N  0.23683387  0.55210783  0.76531907    -0.78800
C629        C  0.20926698  0.02091099  0.72541145     0.82000
N630        N  0.20427519  0.98096446  0.73027560    -0.78700
C631        C  0.22718411  0.97175689  0.77250996     0.82100
N632        N  0.25510632  0.00332233  0.81327909    -0.80400
C633        C  0.45827606  0.70676279  0.82298957     0.79500
N634        N  0.45384659  0.67297492  0.78739696    -0.78800
C635        C  0.48668947  0.67685718  0.74985566     0.82000
N636        N  0.02486991  0.71508101  0.74932544    -0.78700
C637        C  0.03066489  0.74974136  0.78351803     0.82100
N638        N  0.99720397  0.74581226  0.82134105    -0.80400
C639        C  0.29025080  0.74386702  0.81180376     0.79500
N640        N  0.25267139  0.74731664  0.81245425    -0.78800
C641        C  0.25115596  0.77824145  0.77603621     0.82000
N642        N  0.28647305  0.80475548  0.74074982    -0.78700
C643        C  0.32287664  0.80080514  0.73901451     0.82100
N644        N  0.32486609  0.77094427  0.77539069    -0.80400
C645        C  0.45366079  0.59648401  0.73857321    -0.27000
C646        C  0.48296463  0.63827287  0.71610976    -0.15100
C647        C  0.00955377  0.64181871  0.66408422     0.35600
C648        C  0.00845384  0.60516783  0.63901827    -0.26400
C649        C  0.48285595  0.56433405  0.66546896    -0.15700
C650        C  0.45350766  0.55951923  0.71428769     0.36600
N651        N  0.42484949  0.51766821  0.74075834    -0.89900
H652        H  0.43242592  0.59271133  0.77756136     0.17800
H653        H  0.03022057  0.60905329  0.60069282     0.17700
N654        N  0.03915227  0.68219795  0.63600638    -0.89000
H655        H  0.40607653  0.52003956  0.77681219     0.35100
H656        H  0.44472133  0.50644814  0.76019094     0.40200
H657        H  0.06474057  0.70000006  0.66740420     0.39800
H658        H  0.02139343  0.69782098  0.62511223     0.34700
C659        C  0.16318552  0.02033371  0.63552919    -0.27000
C660        C  0.17195200  0.02378172  0.69960285    -0.15100
C661        C  0.14067308  0.52255113  0.74185418     0.35600
C662        C  0.10104137  0.51810256  0.71955290    -0.26400
C663        C  0.09193774  0.01474854  0.65575222    -0.14900
C664        C  0.12337455  0.01614574  0.61282507     0.36600
N665        N  0.11560538  0.01228702  0.54684492    -0.89900
H666        H  0.18683983  0.02006608  0.60328856     0.17800
H667        H  0.07628060  0.51574242  0.75221051     0.17700
N668        N  0.14906112  0.52448329  0.80764248    -0.89000
H669        H  0.13956799  0.04122068  0.52652051     0.35100
H670        H  0.08501989  0.00923286  0.53584230     0.40200
H671        H  0.15175103  0.49741916  0.81991393     0.39800
H672        H  0.12261646  0.52255168  0.83269855     0.34700
C673        C  0.39663602  0.88768742  0.62481378    -0.27000
C674        C  0.43533596  0.90944671  0.65991436    -0.15100
C675        C  0.43828092  0.89212102  0.71774224     0.35600
C676        C  0.40207044  0.85449061  0.74010360    -0.26400
C677        C  0.36245592  0.83388345  0.70652236    -0.15700
C678        C  0.36038254  0.84985277  0.64698143     0.36600
N679        N  0.32247661  0.82834297  0.60740659    -0.89900
H680        H  0.39434644  0.90066206  0.58025853     0.17800
H681        H  0.40407381  0.84295906  0.78596115     0.17700
N682        N  0.47656944  0.91339562  0.75658074    -0.89000
H683        H  0.30875789  0.84853086  0.60304954     0.35100
H684        H  0.29900504  0.79942439  0.62749892     0.40200
H685        H  0.48408345  0.94549522  0.76398562     0.39800
H686        H  0.50281393  0.91321655  0.73367232     0.34700
C687        C  0.05905180  0.61324094  0.94157989    -0.27000
C688        C  0.06815339  0.59111045  0.89476641    -0.15100
C689        C  0.10933818  0.61247433  0.86495908     0.35600
C690        C  0.14302568  0.65165285  0.88943473    -0.26400
C691        C  0.13561698  0.67067501  0.94194375    -0.15700
C692        C  0.09200033  0.65373645  0.46387239     0.36600
N693        N  0.08160635  0.67633798  0.51041354    -0.89900
H694        H  0.02665356  0.59807226  0.46279624     0.17800
H695        H  0.17577483  0.66600229  0.86932188     0.17700
N696        N  0.11716708  0.59490363  0.80985167    -0.89000
H697        H  0.04770238  0.65961720  0.51946290     0.35100
H698        H  0.08811383  0.70598988  0.49125305     0.40200
H699        H  0.12238099  0.61649426  0.77362607     0.39800
H700        H  0.14691555  0.59503536  0.81616643     0.34700
C701        C  0.48641759  0.91084799  0.48038863    -0.27000
C702        C  0.01342508  0.93351121  0.92967047    -0.15100
C703        C  0.04182428  0.91971938  0.90433782     0.35600
C704        C  0.04156309  0.88290661  0.92907576    -0.26400
C705        C  0.01232649  0.85917061  0.97669147    -0.15700
C706        C  0.48478500  0.87322624  0.50258332     0.36600
N707        N  0.45508762  0.84895983  0.55165717    -0.89900
H708        H  0.46513410  0.92146425  0.50140678     0.17800
H709        H  0.06310504  0.87193285  0.91005290     0.17700
N710        N  0.07022410  0.94243444  0.85330733    -0.89000
H711        H  0.42314860  0.84143680  0.53874788     0.35100
H712        H  0.46452462  0.86844828  0.59130200     0.40200
H713        H  0.05060246  0.94085632  0.81578998     0.39800
H714        H  0.08765977  0.92703036  0.83902797     0.34700
C715        C  0.41736702  0.51661105  0.45419839    -0.27000
C716        C  0.41375021  0.48922766  0.90476806    -0.15100
C717        C  0.37158481  0.95555549  0.88626054     0.35600
C718        C  0.33377225  0.95237668  0.91499031    -0.26400
C719        C  0.33804378  0.48092443  0.96321577    -0.15700
C720        C  0.38046211  0.51204117  0.48502415     0.36600
N721        N  0.38760191  0.53911164  0.53886063    -0.89900
H722        H  0.44960381  0.54059042  0.47161756     0.17800
H723        H  0.30108831  0.92798794  0.89957982     0.17700
N724        N  0.36734112  0.92454513  0.83970134    -0.89000
H725        H  0.40741637  0.53371280  0.56997471     0.35100
H726        H  0.35847249  0.52999012  0.56320049     0.40200
H727        H  0.37913830  0.94095336  0.79774970     0.39800
H728        H  0.33407638  0.90154900  0.83243983     0.34700
Fe729      Fe  0.86579112  0.22569333  0.44950885     1.65800
Fe730      Fe  0.85850638  0.12807385  0.45379711     1.73200
Fe731      Fe  0.76644610  0.13577539  0.44278812     1.54400
O732        O  0.76733190  0.16796300  0.52264998    -0.82400
O733        O  0.81064062  0.07862215  0.39460228    -0.80700
O734        O  0.81674975  0.23474058  0.49514054    -0.84900
O735        O  0.83976856  0.23057689  0.36713316    -0.79700
O736        O  0.75464751  0.07956497  0.49363130    -0.81500
O737        O  0.89542503  0.15631930  0.37651290    -0.84200
C738        C  0.79917722  0.21799798  0.35730398     0.96500
C739        C  0.77946595  0.20800898  0.51900477     1.04000
O740        O  0.83035783  0.16321200  0.44593137    -1.13200
O741        O  0.91364306  0.17455220  0.50765282    -0.75700
O742        O  0.88995679  0.21932474  0.53324918    -0.79100
O743        O  0.76815913  0.18623184  0.38694128    -0.79800
C744        C  0.92072644  0.21031610  0.53190796     0.95400
O745        O  0.91885913  0.22607594  0.39829716    -0.77800
O746        O  0.82079106  0.10014055  0.53188684    -0.83000
C747        C  0.78096460  0.07748897  0.35825470     0.98100
C748        C  0.78080460  0.07090846  0.52382073     1.04000
O749        O  0.76639460  0.10388237  0.36366476    -0.78600
C750        C  0.92218688  0.19654543  0.36817859     1.02300
C751        C  0.95565082  0.99383773  0.38141299     0.02400
C752        C  0.49101886  0.03573586  0.37064565    -0.13700
C753        C  0.53458299  0.04538771  0.38099521    -0.00100
C754        C  0.54285083  0.01143094  0.39628201    -0.12200
C755        C  0.50755231  0.46848411  0.40154802     0.02400
C756        C  0.96416538  0.45999300  0.39192577    -0.11600
H757        H  0.48423953  0.06217277  0.36401205     0.08000
H758        H  0.57567951  0.01901684  0.41064178     0.05600
H759        H  0.93671651  0.42777570  0.40107680     0.05400
C760        C  0.74350419  0.45438816  0.06471158     0.79500
N761        N  0.74395646  0.49348430  0.06478355    -0.78800
C762        C  0.77193726  0.02560226  0.52485895     0.82000
N763        N  0.79891398  0.01855090  0.48783510    -0.78700
C764        C  0.79921724  0.48086483  0.48853989     0.82100
N765        N  0.77184254  0.44907267  0.02722426    -0.80400
C766        C  0.70465938  0.25204195  0.06182980     0.79500
N767        N  0.74114608  0.24687044  0.06234056    -0.78800
C768        C  0.74386503  0.21910561  0.52063223     0.82000
N769        N  0.71028183  0.19683257  0.48016977    -0.78700
C770        C  0.67419266  0.20151537  0.47940202     0.82100
N771        N  0.67145705  0.22875217  0.02081251    -0.80400
C772        C  0.53957881  0.29020689  0.07237697     0.79500
N773        N  0.49999597  0.25157537  0.57184947    -0.78800
C774        C  0.96608493  0.24809858  0.53511929     0.82000
N775        N  0.97196875  0.28278166  0.50164391    -0.78700
C776        C  0.51075357  0.32019928  0.50150703     0.82100
N777        N  0.54412780  0.32386286  0.03713116    -0.80400
Fe778      Fe  0.63896896  0.36938069  0.20207606     1.65800
Fe779      Fe  0.62998734  0.27097240  0.20202852     1.73200
Fe780      Fe  0.72970139  0.35931598  0.19675129     1.54400
O781        O  0.73292870  0.39231497  0.11738718    -0.82400
O782        O  0.67777272  0.26057905  0.24896961    -0.80700
O783        O  0.68846923  0.41822471  0.14449208    -0.84900
O784        O  0.67533130  0.39792308  0.28111068    -0.79700
O785        O  0.72676737  0.30784394  0.14091534    -0.81500
O786        O  0.60686138  0.27977958  0.28478493    -0.84200
C787        C  0.71587671  0.42586467  0.27428289     0.96500
C788        C  0.71957648  0.41965770  0.11115500     1.04000
O789        O  0.66628117  0.33335075  0.19689171    -1.13200
O790        O  0.57825368  0.27221714  0.14992199    -0.75700
O791        O  0.60377595  0.34116057  0.12347304    -0.79100
O792        O  0.74184212  0.41556421  0.24717409    -0.79800
C793        C  0.57595886  0.30103172  0.11723012     0.95400
O794        O  0.58265928  0.32313285  0.25448870    -0.77800
O795        O  0.65511824  0.26364873  0.12044210    -0.83000
C796        C  0.71449834  0.28765736  0.27397112     0.98100
C797        C  0.69565981  0.27639540  0.11030171     1.04000
O798        O  0.72548222  0.32730455  0.27777691    -0.78600
C799        C  0.57573444  0.28806014  0.28089369     1.02300
C800        C  0.99270788  0.02956354  0.14738252     0.02400
C801        C  0.95911578  0.48628443  0.14160523    -0.13700
C802        C  0.96953709  0.45297446  0.14026328    -0.00100
C803        C  0.01357219  0.46301859  0.13430812    -0.12200
C804        C  0.54754133  0.50615763  0.13812702     0.02400
C805        C  0.53705509  0.03923116  0.14495730    -0.11600
H806        H  0.92482443  0.47806681  0.14454597     0.08000
H807        H  0.02169677  0.43725816  0.13399831     0.05600
H808        H  0.56355791  0.07205752  0.15386930     0.05400
C809        C  0.76005880  0.04414843  0.30898501     0.79500
N810        N  0.73682583  0.05211082  0.26532177    -0.78800
C811        C  0.70926041  0.52090497  0.22542577     0.82000
N812        N  0.70425664  0.48095423  0.23029910    -0.78700
C813        C  0.72717165  0.47174701  0.27252343     0.82100
N814        N  0.75510885  0.50331584  0.31327698    -0.80400
C815        C  0.95827085  0.20675600  0.32297253     0.79500
N816        N  0.95384069  0.17296628  0.28738348    -0.78800
C817        C  0.98668671  0.17684552  0.24985161     0.82000
N818        N  0.52487025  0.21506601  0.24932923    -0.78700
C819        C  0.53066550  0.24972749  0.28351758     0.82100
N820        N  0.49720159  0.24580320  0.32132935    -0.80400
C821        C  0.79024778  0.24386784  0.31181563     0.79500
N822        N  0.75266963  0.24731979  0.31245949    -0.78800
C823        C  0.75115831  0.27824439  0.27603521     0.82000
N824        N  0.78647806  0.30475646  0.24075168    -0.78700
C825        C  0.82288046  0.30080413  0.23902327     0.82100
N826        N  0.82486543  0.27094285  0.27540364    -0.80400
C827        C  0.95366201  0.09647413  0.23856720    -0.27000
C828        C  0.98296145  0.13826335  0.21610252    -0.15100
C829        C  0.50954947  0.14181331  0.16407367     0.35600
C830        C  0.50845379  0.10516518  0.13900583    -0.26400
C831        C  0.98286087  0.06433126  0.16545716    -0.15700
C832        C  0.95351389  0.05951241  0.21428046     0.36600
N833        N  0.92486263  0.01766064  0.24075444    -0.89900
H834        H  0.93242833  0.09269950  0.27755791     0.17800
H835        H  0.53021915  0.10905281  0.10067763     0.17700
N836        N  0.53914255  0.18219432  0.13599446    -0.89000
H837        H  0.90609233  0.02002997  0.27681395     0.35100
H838        H  0.94473904  0.00644334  0.26017907     0.40200
H839        H  0.56473389  0.19999737  0.16738748     0.39800
H840        H  0.52138100  0.19781642  0.12511018     0.34700
C841        C  0.66318393  0.52033986  0.13555036    -0.27000
C842        C  0.67195186  0.52378765  0.19962288    -0.15100
C843        C  0.64066519  0.02253132  0.24183128     0.35600
C844        C  0.60103445  0.01808350  0.21952732    -0.26400
C845        C  0.59194087  0.51476205  0.15577829    -0.14900
C846        C  0.62337529  0.51615736  0.11284898     0.36600
N847        N  0.61560561  0.51230148  0.04686898    -0.89900
H848        H  0.68683517  0.52006753  0.10330851     0.17800
H849        H  0.57627131  0.01571948  0.25218373     0.17700
N850        N  0.64904361  0.02444672  0.30762038    -0.89000
H851        H  0.63957040  0.54123468  0.02654623     0.35100
H852        H  0.58502183  0.50925186  0.03586764     0.40200
H853        H  0.65173190  0.99737927  0.31987716     0.39800
H854        H  0.62259536  0.02250876  0.33267382     0.34700
C855        C  0.89664615  0.38768071  0.12481737    -0.27000
C856        C  0.93534359  0.40944274  0.15992212    -0.15100
C857        C  0.93828656  0.39211666  0.21775083     0.35600
C858        C  0.90207591  0.35448598  0.24011161    -0.26400
C859        C  0.86246194  0.33387918  0.20652969    -0.15700
C860        C  0.86039111  0.34984732  0.14698639     0.36600
N861        N  0.82248456  0.32833938  0.10741265    -0.89900
H862        H  0.89435770  0.40065485  0.08026115     0.17800
H863        H  0.90407822  0.34295511  0.28597017     0.17700
N864        N  0.97657389  0.41339097  0.25659049    -0.89000
H865        H  0.80876852  0.34852954  0.10305507     0.35100
H866        H  0.79901163  0.29942278  0.12750769     0.40200
H867        H  0.98408801  0.44549081  0.26399429     0.39800
H868        H  0.00281760  0.41321101  0.23368148     0.34700
C869        C  0.55906738  0.11323827  0.44155117    -0.27000
C870        C  0.56817362  0.09110508  0.39474717    -0.15100
C871        C  0.60936732  0.11246188  0.36496220     0.35600
C872        C  0.64305296  0.15163746  0.38944746    -0.26400
C873        C  0.63563649  0.17066136  0.44194777    -0.15700
C874        C  0.59201612  0.15372817  0.96385800     0.36600
N875        N  0.58161871  0.17632788  0.01039811    -0.89900
H876        H  0.52666441  0.09807452  0.96275285     0.17800
H877        H  0.67580639  0.16598267  0.36934982     0.17700
N878        N  0.61720908  0.09488597  0.30987068    -0.89000
H879        H  0.54771357  0.15960966  0.01943901     0.35100
H880        H  0.58813247  0.20598271  0.99124149     0.40200
H881        H  0.62243849  0.11647649  0.27363860     0.39800
H882        H  0.64695337  0.09501357  0.31621239     0.34700
C883        C  0.98643581  0.41084911  0.98036271    -0.27000
C884        C  0.51343243  0.43351430  0.42963771    -0.15100
C885        C  0.54183182  0.41972763  0.40428870     0.35600
C886        C  0.54157419  0.38291185  0.42901080    -0.26400
C887        C  0.51234967  0.35917568  0.47663901    -0.15700
C888        C  0.98481447  0.37323186  0.00255340     0.36600
N889        N  0.95513424  0.34897090  0.05164675    -0.89900
H890        H  0.96515476  0.42146322  0.00139493     0.17800
H891        H  0.56311360  0.37193994  0.40997264     0.17700
N892        N  0.57023455  0.44245604  0.35326667    -0.89000
H893        H  0.92318912  0.34143605  0.03875224     0.35100
H894        H  0.96457494  0.36846922  0.09128224     0.40200
H895        H  0.55061709  0.44089425  0.31575423     0.39800
H896        H  0.58766760  0.42705304  0.33896966     0.34700
C897        C  0.91739354  0.01663986  0.95417206    -0.27000
C898        C  0.91376914  0.98924576  0.40475274    -0.15100
C899        C  0.87156877  0.45554297  0.38625559     0.35600
C900        C  0.83375140  0.45236169  0.41497406    -0.26400
C901        C  0.83807261  0.98094726  0.46322475    -0.15700
C902        C  0.88049404  0.01207217  0.98501076     0.36600
N903        N  0.88764292  0.03915171  0.03883949    -0.89900
H904        H  0.94963278  0.04062373  0.97157696     0.17800
H905        H  0.80106987  0.42797809  0.39954750     0.17700
N906        N  0.86733207  0.42454139  0.33968618    -0.89000
H907        H  0.90746901  0.03376372  0.06994581     0.35100
H908        H  0.85851898  0.03002871  0.06319452     0.40200
H909        H  0.87913645  0.44095764  0.29774182     0.39800
H910        H  0.83406827  0.40154735  0.33241154     0.34700
Fe911      Fe  0.86579097  0.22569329  0.94950869     1.65800
Fe912      Fe  0.85850633  0.12807386  0.95379677     1.73200
Fe913      Fe  0.76644601  0.13577532  0.94278765     1.54400
O914        O  0.76733163  0.16796283  0.02264956    -0.82400
O915        O  0.81064063  0.07862216  0.89460194    -0.80700
O916        O  0.81674958  0.23474048  0.99514050    -0.84900
O917        O  0.83976851  0.23057689  0.86713295    -0.79700
O918        O  0.75464753  0.07956488  0.99363086    -0.81500
O919        O  0.89542492  0.15631937  0.87651256    -0.84200
C920        C  0.79917718  0.21799794  0.85730359     0.96500
C921        C  0.77946572  0.20800884  0.01900455     1.04000
O922        O  0.83035771  0.16321196  0.94593112    -1.13200
O923        O  0.91364293  0.17455220  0.00765261    -0.75700
O924        O  0.88995660  0.21932469  0.03324903    -0.79100
O925        O  0.76815905  0.18623174  0.88694074    -0.79800
C926        C  0.92072624  0.21031605  0.03190789     0.95400
O927        O  0.91885902  0.22607597  0.89829696    -0.77800
O928        O  0.82079106  0.10014031  0.03188646    -0.83000
C929        C  0.78096469  0.07748903  0.85825427     0.98100
C930        C  0.78080456  0.07090830  0.02382036     1.04000
O931        O  0.76639474  0.10388248  0.86366423    -0.78600
C932        C  0.92218684  0.19654549  0.86817843     1.02300
C933        C  0.95565082  0.99383774  0.88141304     0.02400
C934        C  0.49101856  0.03573574  0.87064584    -0.13700
C935        C  0.53458270  0.04538763  0.88099542    -0.00100
C936        C  0.54285065  0.01143090  0.89628212    -0.12200
C937        C  0.50755219  0.46848404  0.90154807     0.02400
C938        C  0.96416529  0.45999297  0.89192576    -0.11600
H939        H  0.48423916  0.06217262  0.86401230     0.08000
H940        H  0.57567936  0.01901687  0.91064183     0.05600
H941        H  0.93671638  0.42777568  0.90107680     0.05400
C942        C  0.74350405  0.45438818  0.56471134     0.79500
N943        N  0.74395647  0.49348440  0.56478353    -0.78800
C944        C  0.77193711  0.02560204  0.02485870     0.82000
N945        N  0.79891370  0.01855057  0.98783474    -0.78700
C946        C  0.79921707  0.48086466  0.98853968     0.82100
N947        N  0.77184242  0.44907270  0.52722405    -0.80400
C948        C  0.70465946  0.25204191  0.56183002     0.79500
N949        N  0.74114623  0.24687049  0.56234080    -0.78800
C950        C  0.74386481  0.21910550  0.02063205     0.82000
N951        N  0.71028160  0.19683251  0.98016957    -0.78700
C952        C  0.67419246  0.20151537  0.97940184     0.82100
N953        N  0.67145719  0.22875213  0.52081269    -0.80400
C954        C  0.53957871  0.29020691  0.57237716     0.79500
N955        N  0.49999605  0.25157538  0.07184932    -0.78800
C956        C  0.96608468  0.24809854  0.03511941     0.82000
N957        N  0.97196846  0.28278167  0.00164420    -0.78700
C958        C  0.51075369  0.32019929  0.00150688     0.82100
N959        N  0.54412767  0.32386289  0.53713137    -0.80400
Fe960      Fe  0.63896899  0.36938073  0.70207606     1.65800
Fe961      Fe  0.62998733  0.27097241  0.70202854     1.73200
Fe962      Fe  0.72970136  0.35931601  0.69675113     1.54400
O963        O  0.73292861  0.39231497  0.61738692    -0.82400
O964        O  0.67777279  0.26057918  0.74896970    -0.80700
O965        O  0.68846917  0.41822471  0.64449193    -0.84900
O966        O  0.67533145  0.39792315  0.78111062    -0.79700
O967        O  0.72676736  0.30784394  0.64091540    -0.81500
O968        O  0.60686135  0.27977960  0.78478492    -0.84200
C969        C  0.71587685  0.42586473  0.77428270     0.96500
C970        C  0.71957636  0.41965769  0.61115475     1.04000
O971        O  0.66628113  0.33335074  0.69689156    -1.13200
O972        O  0.57825368  0.27221716  0.64992201    -0.75700
O973        O  0.60377587  0.34116059  0.62347315    -0.79100
O974        O  0.74184219  0.41556425  0.74717382    -0.79800
C975        C  0.57595880  0.30103174  0.61723024     0.95400
O976        O  0.58265934  0.32313295  0.75448875    -0.77800
O977        O  0.65511824  0.26364874  0.62044213    -0.83000
C978        C  0.71449842  0.28765751  0.77397115     0.98100
C979        C  0.69565983  0.27639538  0.61030183     1.04000
O980        O  0.72548228  0.32730471  0.77777687    -0.78600
C981        C  0.57573444  0.28806021  0.78089368     1.02300
C982        C  0.99270800  0.02956359  0.64738264     0.02400
C983        C  0.95911598  0.48628452  0.64160534    -0.13700
C984        C  0.96953729  0.45297455  0.64026321    -0.00100
C985        C  0.01357239  0.46301867  0.63430785    -0.12200
C986        C  0.54754119  0.50615759  0.63812736     0.02400
C987        C  0.53705502  0.03923112  0.64495758    -0.11600
H988        H  0.92482464  0.47806691  0.64454617     0.08000
H989        H  0.02169696  0.43725824  0.63399788     0.05600
H990        H  0.56355788  0.07205744  0.65386966     0.05400
C991        C  0.76005888  0.04414849  0.80898460     0.79500
N992        N  0.73682574  0.05211082  0.76532157    -0.78800
C993        C  0.70926038  0.52090495  0.72542557     0.82000
N994        N  0.70425665  0.48095422  0.73029891    -0.78700
C995        C  0.72717179  0.47174706  0.77252312     0.82100
N996        N  0.75510898  0.50331592  0.81327663    -0.80400
C997        C  0.95827095  0.20675607  0.82297261     0.79500
N998        N  0.95384085  0.17296634  0.78738362    -0.78800
C999        C  0.98668686  0.17684561  0.74985174     0.82000
N1000       N  0.52487020  0.21506610  0.74932932    -0.78700
C1001       C  0.53066548  0.24972759  0.78351763     0.82100
N1002       N  0.49720163  0.24580330  0.82132956    -0.80400
C1003       C  0.79024780  0.24386786  0.81181527     0.79500
N1004       N  0.75266964  0.24731978  0.81245912    -0.78800
C1005       C  0.75115839  0.27824453  0.77603512     0.82000
N1006       N  0.78647818  0.30475668  0.74075170    -0.78700
C1007       C  0.82288056  0.30080432  0.73902322     0.82100
N1008       N  0.82486549  0.27094295  0.77540342    -0.80400
C1009       C  0.95366234  0.09647424  0.73856747    -0.27000
C1010       C  0.98296167  0.13826345  0.71610265    -0.15100
C1011       C  0.50954966  0.14181344  0.66407406     0.35600
C1012       C  0.50845398  0.10516529  0.63900627    -0.26400
C1013       C  0.98286103  0.06433134  0.66545723    -0.15700
C1014       C  0.95351413  0.05951249  0.71428066     0.36600
N1015       N  0.92486286  0.01766072  0.74075467    -0.89900
H1016       H  0.93242878  0.09269962  0.77755834     0.17800
H1017       H  0.53021942  0.10905294  0.60067819     0.17700
N1018       N  0.53914282  0.18219447  0.63599496    -0.89000
H1019       H  0.90609262  0.02003006  0.77681431     0.35100
H1020       H  0.94473922  0.00644329  0.76017914     0.40200
H1021       H  0.56473413  0.19999759  0.66738830     0.39800
H1022       H  0.52138138  0.19781649  0.62511047     0.34700
C1023       C  0.66318386  0.52033992  0.63555028    -0.27000
C1024       C  0.67195180  0.52378761  0.69962278    -0.15100
C1025       C  0.64066502  0.02253118  0.74183135     0.35600
C1026       C  0.60103424  0.01808325  0.71952742    -0.26400
C1027       C  0.59194075  0.51476198  0.65577844    -0.14900
C1028       C  0.62337520  0.51615748  0.61284903     0.36600
N1029       N  0.61560553  0.51230174  0.54686904    -0.89900
H1030       H  0.68683507  0.52006762  0.60330836     0.17800
H1031       H  0.57627106  0.01571908  0.75218387     0.17700
N1032       N  0.64904349  0.02444661  0.80762047    -0.89000
H1033       H  0.63957026  0.54123498  0.52654641     0.35100
H1034       H  0.58502168  0.50925205  0.53586780     0.40200
H1035       H  0.65173191  0.99737924  0.81987727     0.39800
H1036       H  0.62259519  0.02250854  0.83267396     0.34700
C1037       C  0.89664634  0.38768082  0.62481727    -0.27000
C1038       C  0.93534378  0.40944281  0.65992200    -0.15100
C1039       C  0.93828674  0.39211668  0.71775068     0.35600
C1040       C  0.90207609  0.35448601  0.74011150    -0.26400
C1041       C  0.86246206  0.33387935  0.70652968    -0.15700
C1042       C  0.86039126  0.34984749  0.64698636     0.36600
N1043       N  0.82248469  0.32833960  0.60741270    -0.89900
H1044       H  0.89435793  0.40065496  0.58026102     0.17800
H1045       H  0.90407842  0.34295505  0.78596999     0.17700
N1046       N  0.97657411  0.41339097  0.75659026    -0.89000
H1047       H  0.80876871  0.34852987  0.60305515     0.35100
H1048       H  0.79901175  0.29942302  0.62750770     0.40200
H1049       H  0.98408825  0.44549081  0.76399414     0.39800
H1050       H  0.00281778  0.41321101  0.73368115     0.34700
C1051       C  0.55906706  0.11323824  0.94155124    -0.27000
C1052       C  0.56817330  0.09110499  0.89474732    -0.15100
C1053       C  0.60936702  0.11246166  0.86496241     0.35600
C1054       C  0.64305268  0.15163723  0.88944759    -0.26400
C1055       C  0.63563622  0.17066130  0.94194771    -0.15700
C1056       C  0.59201641  0.15372815  0.46385806     0.36600
N1057       N  0.58161903  0.17632776  0.51039835    -0.89900
H1058       H  0.52666475  0.09807450  0.46275282     0.17800
H1059       H  0.67580613  0.16598227  0.86935004     0.17700
N1060       N  0.61720890  0.09488552  0.80987122    -0.89000
H1061       H  0.54771386  0.15960943  0.51943945     0.35100
H1062       H  0.58813268  0.20598252  0.49124184     0.40200
H1063       H  0.62243837  0.11647594  0.77363878     0.39800
H1064       H  0.64695308  0.09501316  0.81621326     0.34700
C1065       C  0.98643590  0.41084910  0.48036263    -0.27000
C1066       C  0.51343241  0.43351423  0.92963762    -0.15100
C1067       C  0.54183172  0.41972753  0.90428842     0.35600
C1068       C  0.54157415  0.38291177  0.92901055    -0.26400
C1069       C  0.51234981  0.35917571  0.97663899    -0.15700
C1070       C  0.98481460  0.37323182  0.50255319     0.36600
N1071       N  0.95513436  0.34897077  0.55164647    -0.89900
H1072       H  0.96515480  0.42146312  0.50139490     0.17800
H1073       H  0.56311346  0.37193979  0.90997224     0.17700
N1074       N  0.57023436  0.44245590  0.85326631    -0.89000
H1075       H  0.92318935  0.34143598  0.53875202     0.35100
H1076       H  0.96457504  0.36846916  0.59128203     0.40200
H1077       H  0.55061685  0.44089423  0.81575394     0.39800
H1078       H  0.58766734  0.42705288  0.83896907     0.34700
C1079       C  0.91739366  0.01663971  0.45417233    -0.27000
C1080       C  0.91376910  0.98924581  0.90475258    -0.15100
C1081       C  0.87156864  0.45554289  0.88625548     0.35600
C1082       C  0.83375126  0.45236156  0.91497399    -0.26400
C1083       C  0.83807249  0.98094710  0.96322468    -0.15700
C1084       C  0.88049420  0.01207214  0.48501093     0.36600
N1085       N  0.88764321  0.03915164  0.53883970    -0.89900
H1086       H  0.94963292  0.04062347  0.47157729     0.17800
H1087       H  0.80106971  0.42797786  0.89954763     0.17700
N1088       N  0.86733193  0.42454133  0.83968603    -0.89000
H1089       H  0.90746920  0.03376344  0.56994590     0.35100
H1090       H  0.85851928  0.03002876  0.56319474     0.40200
H1091       H  0.87913631  0.44095765  0.79774170     0.39800
H1092       H  0.83406815  0.40154734  0.83241132     0.34700
Fe1093     Fe  0.86578407  0.72568714  0.44951848     1.65800
Fe1094     Fe  0.85850271  0.62806698  0.45380684     1.73200
Fe1095     Fe  0.76644132  0.63576822  0.44275954     1.54400
O1096       O  0.76730165  0.66794855  0.52261605    -0.82400
O1097       O  0.81064940  0.57861911  0.39459581    -0.80700
O1098       O  0.81673535  0.73472935  0.49513735    -0.84900
O1099       O  0.83977345  0.73058346  0.36713604    -0.79700
O1100       O  0.75463309  0.57955537  0.49360060    -0.81500
O1101       O  0.89543727  0.65632036  0.37653759    -0.84200
C1102       C  0.79918208  0.71799828  0.35729090     0.96500
C1103       C  0.77944408  0.70799724  0.51898205     1.04000
O1104       O  0.83035307  0.66320570  0.44592935    -1.13200
O1105       O  0.91363100  0.67454053  0.50768325    -0.75700
O1106       O  0.88993576  0.71930734  0.53326631    -0.79100
O1107       O  0.76816142  0.68622514  0.38691267    -0.79800
C1108       C  0.92070866  0.71030289  0.53193704     0.95400
O1109       O  0.91885951  0.72607565  0.39831749    -0.77800
O1110       O  0.82076967  0.60012301  0.53187955    -0.83000
C1111       C  0.78097816  0.57748766  0.35824063     0.98100
C1112       C  0.78078346  0.57089393  0.52379793     1.04000
O1113       O  0.76641103  0.60388372  0.36364071    -0.78600
C1114       C  0.92219355  0.69654769  0.36820133     1.02300
C1115       C  0.95563670  0.49383091  0.38142714     0.02400
C1116       C  0.49099945  0.53573415  0.37067359    -0.13700
C1117       C  0.53456591  0.54539186  0.38101555    -0.00100
C1118       C  0.54284253  0.51143770  0.39628206    -0.12200
C1119       C  0.50755445  0.96848165  0.40156325     0.02400
C1120       C  0.96417117  0.95999680  0.39193102    -0.11600
H1121       H  0.48421404  0.56216821  0.36405347     0.08000
H1122       H  0.57567318  0.51902717  0.41063663     0.05600
H1123       H  0.93671820  0.92778344  0.40109049     0.05400
C1124       C  0.74353201  0.95440108  0.06472796     0.79500
N1125       N  0.74398200  0.99349653  0.06480417    -0.78800
C1126       C  0.77191033  0.52558611  0.52483293     0.82000
N1127       N  0.79888489  0.51853085  0.48780930    -0.78700
C1128       C  0.79924900  0.98088634  0.48856206     0.82100
N1129       N  0.77187383  0.94909018  0.02724170    -0.80400
C1130       C  0.70464961  0.75203841  0.06183784     0.79500
N1131       N  0.74113351  0.74686213  0.06233804    -0.78800
C1132       C  0.74385003  0.71910418  0.52061381     0.82000
N1133       N  0.71026676  0.69684221  0.48014623    -0.78700
C1134       C  0.67417898  0.70152802  0.47939103     0.82100
N1135       N  0.67144632  0.72875826  0.02081721    -0.80400
C1136       C  0.53956574  0.79019801  0.07240448     0.79500
N1137       N  0.49998361  0.75156378  0.57187643    -0.78800
C1138       C  0.96606571  0.74808981  0.53516218     0.82000
N1139       N  0.97194309  0.78277711  0.50170411    -0.78700
C1140       C  0.51072675  0.82019518  0.50156667     0.82100
N1141       N  0.54410714  0.82385624  0.03717259    -0.80400
Fe1142     Fe  0.63897556  0.86938425  0.20206632     1.65800
Fe1143     Fe  0.62998420  0.77097184  0.20205607     1.73200
Fe1144     Fe  0.72970587  0.85931445  0.19676369     1.54400
O1145       O  0.73294807  0.89232072  0.11739834    -0.82400
O1146       O  0.67776471  0.76057444  0.24900224    -0.80700
O1147       O  0.68848035  0.91822463  0.14448325    -0.84900
O1148       O  0.67533614  0.89793488  0.28109996    -0.79700
O1149       O  0.72676403  0.80783898  0.14092679    -0.81500
O1150       O  0.60686143  0.77979446  0.28480573    -0.84200
C1151       C  0.71588371  0.92587244  0.27427776     0.96500
C1152       C  0.71959646  0.91966370  0.11116095     1.04000
O1153       O  0.66628487  0.83335114  0.19689961    -1.13200
O1154       O  0.57825084  0.77221446  0.14994414    -0.75700
O1155       O  0.60378308  0.84115341  0.12346407    -0.79100
O1156       O  0.74184956  0.91556538  0.24718461    -0.79800
C1157       C  0.57595677  0.80102478  0.11724139     0.95400
O1158       O  0.58266225  0.82314393  0.25448141    -0.77800
O1159       O  0.65511167  0.76363287  0.12047744    -0.83000
C1160       C  0.71449544  0.78765452  0.27398794     0.98100
C1161       C  0.69565325  0.77638592  0.11032298     1.04000
O1162       O  0.72547893  0.82730156  0.27779115    -0.78600
C1163       C  0.57573463  0.78807434  0.28089983     1.02300
C1164       C  0.99270401  0.52956464  0.14740375     0.02400
C1165       C  0.95911680  0.98628587  0.14158337    -0.13700
C1166       C  0.96953301  0.95297330  0.14024678    -0.00100
C1167       C  0.01356613  0.96301132  0.13428765    -0.12200
C1168       C  0.54753962  0.00614925  0.13809932     0.02400
C1169       C  0.53705232  0.53923590  0.14498438    -0.11600
H1170       H  0.92482659  0.97807231  0.14452514     0.08000
H1171       H  0.02168589  0.93724752  0.13398043     0.05600
H1172       H  0.56355306  0.57206302  0.15389805     0.05400
C1173       C  0.76006952  0.54414485  0.30897625     0.79500
N1174       N  0.73683385  0.55210782  0.26531913    -0.78800
C1175       C  0.70926692  0.02091093  0.22541140     0.82000
N1176       N  0.70427505  0.98096437  0.23027567    -0.78700
C1177       C  0.72718385  0.97175676  0.27251015     0.82100
N1178       N  0.75510611  0.00332223  0.31327921    -0.80400
C1179       C  0.95827603  0.70676268  0.32298952     0.79500
N1180       N  0.95384657  0.67297476  0.28739702    -0.78800
C1181       C  0.98668941  0.67685705  0.24985561     0.82000
N1182       N  0.52486985  0.71508093  0.24932534    -0.78700
C1183       C  0.53066486  0.74974128  0.28351794     0.82100
N1184       N  0.49720397  0.74581222  0.32134100    -0.80400
C1185       C  0.79025075  0.74386696  0.31180379     0.79500
N1186       N  0.75267133  0.74731657  0.31245438    -0.78800
C1187       C  0.75115588  0.77824141  0.27603642     0.82000
N1188       N  0.78647294  0.80475542  0.24075000    -0.78700
C1189       C  0.82287654  0.80080509  0.23901459     0.82100
N1190       N  0.82486603  0.77094422  0.27539071    -0.80400
C1191       C  0.95366084  0.59648397  0.23857318    -0.27000
C1192       C  0.98296455  0.63827278  0.21610959    -0.15100
C1193       C  0.50955363  0.64181867  0.16408400     0.35600
C1194       C  0.50845373  0.60516781  0.13901808    -0.26400
C1195       C  0.98285582  0.56433397  0.16546861    -0.15700
C1196       C  0.95350771  0.55951920  0.21428759     0.36600
N1197       N  0.92484965  0.51766823  0.24075842    -0.89900
H1198       H  0.93242612  0.59271133  0.27756151     0.17800
H1199       H  0.53022039  0.60905326  0.10069253     0.17700
N1200       N  0.53915211  0.68219791  0.13600615    -0.89000
H1201       H  0.90607683  0.52003966  0.27681231     0.35100
H1202       H  0.94472160  0.50644825  0.26019096     0.40200
H1203       H  0.56474040  0.69999998  0.16740394     0.39800
H1204       H  0.52139328  0.69782094  0.12511206     0.34700
C1205       C  0.66318545  0.02033349  0.13552917    -0.27000
C1206       C  0.67195199  0.02378168  0.19960278    -0.15100
C1207       C  0.64067307  0.52255132  0.24185424     0.35600
C1208       C  0.60104139  0.51810279  0.21955288    -0.26400
C1209       C  0.59193781  0.01474866  0.15575213    -0.14900
C1210       C  0.62337450  0.01614556  0.11282504     0.36600
N1211       N  0.61560534  0.01228670  0.04684491    -0.89900
H1212       H  0.68683970  0.02006572  0.10328860     0.17800
H1213       H  0.57628068  0.51574282  0.25221046     0.17700
N1214       N  0.64906115  0.52448363  0.30764258    -0.89000
H1215       H  0.63956796  0.04122027  0.02652047     0.35100
H1216       H  0.58501984  0.00923262  0.03584228     0.40200
H1217       H  0.65175114  0.49741958  0.31991427     0.39800
H1218       H  0.62261653  0.52255204  0.33269861     0.34700
C1219       C  0.89663596  0.88768747  0.12481391    -0.27000
C1220       C  0.93533593  0.90944666  0.15991440    -0.15100
C1221       C  0.93828088  0.89212098  0.21774227     0.35600
C1222       C  0.90207033  0.85449065  0.24010373    -0.26400
C1223       C  0.86245581  0.83388352  0.20652252    -0.15700
C1224       C  0.86038242  0.84985290  0.14698163     0.36600
N1225       N  0.82247647  0.82834311  0.10740682    -0.89900
H1226       H  0.89434643  0.90066214  0.08025865     0.17800
H1227       H  0.90407366  0.84295909  0.28596130     0.17700
N1228       N  0.97656945  0.91339554  0.25658067    -0.89000
H1229       H  0.80875775  0.84853105  0.10304968     0.35100
H1230       H  0.79900494  0.79942458  0.12749912     0.40200
H1231       H  0.98408358  0.94549519  0.26398537     0.39800
H1232       H  0.00281387  0.91321631  0.23367227     0.34700
C1233       C  0.55905202  0.61324083  0.44158005    -0.27000
C1234       C  0.56815355  0.59111046  0.39476634    -0.15100
C1235       C  0.60933831  0.61247440  0.36495898     0.35600
C1236       C  0.64302578  0.65165293  0.38943463    -0.26400
C1237       C  0.63561711  0.67067504  0.44194372    -0.15700
C1238       C  0.59200022  0.65373653  0.96387224     0.36600
N1239       N  0.58160626  0.67633818  0.01041324    -0.89900
H1240       H  0.52665331  0.59807256  0.96279579     0.17800
H1241       H  0.67577489  0.66600244  0.36932168     0.17700
N1242       N  0.61716726  0.59490376  0.30985154    -0.89000
H1243       H  0.54770230  0.65961744  0.01946260     0.35100
H1244       H  0.58811376  0.70599000  0.99125257     0.40200
H1245       H  0.62238098  0.61649440  0.27362582     0.39800
H1246       H  0.64691568  0.59503562  0.31616614     0.34700
C1247       C  0.98641756  0.91084791  0.98038862    -0.27000
C1248       C  0.51342516  0.93351133  0.42967056    -0.15100
C1249       C  0.54182437  0.91971951  0.40433791     0.35600
C1250       C  0.54156320  0.88290673  0.42907576    -0.26400
C1251       C  0.51232660  0.85917072  0.47669143    -0.15700
C1252       C  0.98478497  0.87322619  0.00258342     0.36600
N1253       N  0.95508762  0.84895986  0.05165739    -0.89900
H1254       H  0.96513413  0.92146421  0.00140681     0.17800
H1255       H  0.56310513  0.87193296  0.41005284     0.17700
N1256       N  0.57022411  0.94243457  0.35330739    -0.89000
H1257       H  0.92314862  0.84143680  0.03874813     0.35100
H1258       H  0.96452459  0.86844836  0.09130212     0.40200
H1259       H  0.55060241  0.94085638  0.31579017     0.39800
H1260       H  0.58765992  0.92703053  0.33902804     0.34700
C1261       C  0.91736680  0.51661083  0.95419847    -0.27000
C1262       C  0.91375036  0.48922776  0.40476801    -0.15100
C1263       C  0.87158489  0.95555554  0.38626050     0.35600
C1264       C  0.83377234  0.95237673  0.41499034    -0.26400
C1265       C  0.83804394  0.48092447  0.46321598    -0.15700
C1266       C  0.88046192  0.51204100  0.98502420     0.36600
N1267       N  0.88760171  0.53911147  0.03886068    -0.89900
H1268       H  0.94960359  0.54059015  0.97161769     0.17800
H1269       H  0.80108842  0.92798794  0.39957990     0.17700
N1270       N  0.86734121  0.92454518  0.33970131    -0.89000
H1271       H  0.90741613  0.53371256  0.06997486     0.35100
H1272       H  0.85847229  0.52999001  0.06320044     0.40200
H1273       H  0.87913835  0.94095341  0.29774964     0.39800
H1274       H  0.83407650  0.90154901  0.33243982     0.34700
Fe1275     Fe  0.86578399  0.72568703  0.94951852     1.65800
Fe1276     Fe  0.85850264  0.62806688  0.95380657     1.73200
Fe1277     Fe  0.76644125  0.63576811  0.94275914     1.54400
O1278       O  0.76730136  0.66794838  0.02261558    -0.82400
O1279       O  0.81064943  0.57861910  0.89459543    -0.80700
O1280       O  0.81673516  0.73472923  0.99513714    -0.84900
O1281       O  0.83977348  0.73058352  0.86713606    -0.79700
O1282       O  0.75463300  0.57955521  0.99360012    -0.81500
O1283       O  0.89543719  0.65632034  0.87653732    -0.84200
C1284       C  0.79918211  0.71799831  0.85729076     0.96500
C1285       C  0.77944383  0.70799710  0.01898166     1.04000
O1286       O  0.83035298  0.66320560  0.94592914    -1.13200
O1287       O  0.91363090  0.67454040  0.00768312    -0.75700
O1288       O  0.88993548  0.71930701  0.03326642    -0.79100
O1289       O  0.76816139  0.68622507  0.88691233    -0.79800
C1290       C  0.92070844  0.71030266  0.03193714     0.95400
O1291       O  0.91885956  0.72607558  0.89831767    -0.77800
O1292       O  0.82076953  0.60012272  0.03187922    -0.83000
C1293       C  0.78097823  0.57748769  0.85824024     0.98100
C1294       C  0.78078329  0.57089370  0.02379755     1.04000
O1295       O  0.76641111  0.60388375  0.86364031    -0.78600
C1296       C  0.92219355  0.69654766  0.86820127     1.02300
C1297       C  0.95563664  0.49383091  0.88142705     0.02400
C1298       C  0.49099912  0.53573401  0.87067411    -0.13700
C1299       C  0.53456559  0.54539180  0.88101597    -0.00100
C1300       C  0.54284233  0.51143768  0.89628222    -0.12200
C1301       C  0.50755434  0.96848158  0.90156327     0.02400
C1302       C  0.96417109  0.95999675  0.89193104    -0.11600
H1303       H  0.48421360  0.56216801  0.86405410     0.08000
H1304       H  0.57567304  0.51902721  0.91063656     0.05600
H1305       H  0.93671808  0.92778340  0.90109038     0.05400
C1306       C  0.74353207  0.95440122  0.56472793     0.79500
N1307       N  0.74398199  0.99349664  0.56480415    -0.78800
C1308       C  0.77191005  0.52558586  0.02483255     0.82000
N1309       N  0.79888446  0.51853054  0.98780874    -0.78700
C1310       C  0.79924880  0.98088606  0.98856187     0.82100
N1311       N  0.77187398  0.94909042  0.52724177    -0.80400
C1312       C  0.70464970  0.75203836  0.56183798     0.79500
N1313       N  0.74113356  0.74686203  0.56233842    -0.78800
C1314       C  0.74384981  0.71910411  0.02061355     0.82000
N1315       N  0.71026644  0.69684206  0.98014619    -0.78700
C1316       C  0.67417868  0.70152790  0.97939107     0.82100
N1317       N  0.67144654  0.72875832  0.52081715    -0.80400
C1318       C  0.53956560  0.79019796  0.57240452     0.79500
N1319       N  0.49998375  0.75156384  0.07187638    -0.78800
C1320       C  0.96606545  0.74808966  0.03516240     0.82000
N1321       N  0.97194280  0.78277696  0.00170431    -0.78700
C1322       C  0.51072690  0.82019524  0.00156665     0.82100
N1323       N  0.54410702  0.82385615  0.53717253    -0.80400
Fe1324     Fe  0.63897555  0.86938430  0.70206625     1.65800
Fe1325     Fe  0.62998421  0.77097186  0.70205606     1.73200
Fe1326     Fe  0.72970590  0.85931450  0.69676349     1.54400
O1327       O  0.73294803  0.89232074  0.61739810    -0.82400
O1328       O  0.67776472  0.76057445  0.74900225    -0.80700
O1329       O  0.68848028  0.91822460  0.64448302    -0.84900
O1330       O  0.67533626  0.89793498  0.78109975    -0.79700
O1331       O  0.72676408  0.80783904  0.64092665    -0.81500
O1332       O  0.60686145  0.77979461  0.78480568    -0.84200
C1333       C  0.71588381  0.92587255  0.77427742     0.96500
C1334       C  0.71959644  0.91966375  0.61116078     1.04000
O1335       O  0.66628486  0.83335116  0.69689957    -1.13200
O1336       O  0.57825083  0.77221448  0.64994415    -0.75700
O1337       O  0.60378292  0.84115342  0.62346411    -0.79100
O1338       O  0.74184966  0.91556550  0.74718428    -0.79800
C1339       C  0.57595666  0.80102478  0.61724145     0.95400
O1340       O  0.58266227  0.82314411  0.75448153    -0.77800
O1341       O  0.65511172  0.76363287  0.62047741    -0.83000
C1342       C  0.71449551  0.78765459  0.77398779     0.98100
C1343       C  0.69565330  0.77638590  0.61032297     1.04000
O1344       O  0.72547895  0.82730161  0.77779099    -0.78600
C1345       C  0.57573465  0.78807451  0.78089987     1.02300
C1346       C  0.99270422  0.52956472  0.64740387     0.02400
C1347       C  0.95911689  0.98628593  0.64158351    -0.13700
C1348       C  0.96953313  0.95297339  0.64024676    -0.00100
C1349       C  0.01356624  0.96301141  0.63428749    -0.12200
C1350       C  0.54753950  0.00614920  0.63809937     0.02400
C1351       C  0.53705218  0.53923584  0.64498489    -0.11600
H1352       H  0.92482668  0.97807235  0.64452535     0.08000
H1353       H  0.02168599  0.93724762  0.63398012     0.05600
H1354       H  0.56355291  0.57206292  0.65389873     0.05400
C1355       C  0.76006957  0.54414490  0.80897592     0.79500
N1356       N  0.73683382  0.55210781  0.76531887    -0.78800
C1357       C  0.70926677  0.02091090  0.72541129     0.82000
N1358       N  0.70427493  0.98096436  0.73027548    -0.78700
C1359       C  0.72718391  0.97175683  0.77250976     0.82100
N1360       N  0.75510629  0.00332233  0.81327869    -0.80400
C1361       C  0.95827606  0.70676270  0.82298946     0.79500
N1362       N  0.95384664  0.67297480  0.78739693    -0.78800
C1363       C  0.98668953  0.67685710  0.74985561     0.82000
N1364       N  0.52486985  0.71508109  0.74932548    -0.78700
C1365       C  0.53066486  0.74974144  0.78351804     0.82100
N1366       N  0.49720398  0.74581237  0.82134115    -0.80400
C1367       C  0.79025081  0.74386702  0.81180361     0.79500
N1368       N  0.75267141  0.74731667  0.81245416    -0.78800
C1369       C  0.75115599  0.77824154  0.77603624     0.82000
N1370       N  0.78647313  0.80475567  0.74075002    -0.78700
C1371       C  0.82287670  0.80080528  0.73901459     0.82100
N1372       N  0.82486610  0.77094427  0.77539053    -0.80400
C1373       C  0.95366102  0.59648399  0.73857329    -0.27000
C1374       C  0.98296469  0.63827281  0.71610964    -0.15100
C1375       C  0.50955387  0.64181875  0.66408456     0.35600
C1376       C  0.50845391  0.60516787  0.63901865    -0.26400
C1377       C  0.98285602  0.56433402  0.66546874    -0.15700
C1378       C  0.95350788  0.55951922  0.71428771     0.36600
N1379       N  0.92484984  0.51766824  0.74075855    -0.89900
H1380       H  0.93242632  0.59271133  0.77756165     0.17800
H1381       H  0.53022069  0.60905331  0.60069328     0.17700
N1382       N  0.53915255  0.68219797  0.63600684    -0.89000
H1383       H  0.90607703  0.52003966  0.77681261     0.35100
H1384       H  0.94472174  0.50644821  0.76019095     0.40200
H1385       H  0.56474073  0.70000006  0.66740481     0.39800
H1386       H  0.52139378  0.69782103  0.62511235     0.34700
C1387       C  0.66318532  0.02033354  0.63552918    -0.27000
C1388       C  0.67195183  0.02378163  0.69960279    -0.15100
C1389       C  0.64067298  0.52255113  0.74185420     0.35600
C1390       C  0.60104123  0.51810250  0.71955299    -0.26400
C1391       C  0.59193765  0.01474855  0.65575220    -0.14900
C1392       C  0.62337442  0.01614568  0.61282505     0.36600
N1393       N  0.61560531  0.01228701  0.54684490    -0.89900
H1394       H  0.68683958  0.02006578  0.60328860     0.17800
H1395       H  0.57628045  0.51574231  0.75221063     0.17700
N1396       N  0.64906101  0.52448332  0.80764251    -0.89000
H1397       H  0.63956796  0.04122065  0.52652053     0.35100
H1398       H  0.58501983  0.00923290  0.53584227     0.40200
H1399       H  0.65175098  0.49741913  0.81991399     0.39800
H1400       H  0.62261644  0.52255166  0.83269850     0.34700
C1401       C  0.89663616  0.88768751  0.62481380    -0.27000
C1402       C  0.93533611  0.90944673  0.65991435    -0.15100
C1403       C  0.93828106  0.89212105  0.71774224     0.35600
C1404       C  0.90207053  0.85449070  0.74010365    -0.26400
C1405       C  0.86245599  0.83388363  0.70652248    -0.15700
C1406       C  0.86038260  0.84985296  0.64698156     0.36600
N1407       N  0.82247661  0.82834324  0.60740683    -0.89900
H1408       H  0.89434661  0.90066219  0.58025855     0.17800
H1409       H  0.90407390  0.84295910  0.78596117     0.17700
N1410       N  0.97656963  0.91339556  0.75658068    -0.89000
H1411       H  0.80875795  0.84853121  0.60304987     0.35100
H1412       H  0.79900501  0.79942465  0.62749917     0.40200
H1413       H  0.98408380  0.94549521  0.76398553     0.39800
H1414       H  0.00281404  0.91321635  0.73367226     0.34700
C1415       C  0.55905166  0.61324098  0.94157986    -0.27000
C1416       C  0.56815322  0.59111044  0.89476647    -0.15100
C1417       C  0.60933803  0.61247424  0.86495921     0.35600
C1418       C  0.64302550  0.65165282  0.88943468    -0.26400
C1419       C  0.63561684  0.67067501  0.94194367    -0.15700
C1420       C  0.59200050  0.65373642  0.46387246     0.36600
N1421       N  0.58160649  0.67633794  0.51041365    -0.89900
H1422       H  0.52665370  0.59807228  0.46279608     0.17800
H1423       H  0.67577461  0.66600226  0.86932173     0.17700
N1424       N  0.61716698  0.59490346  0.80985195    -0.89000
H1425       H  0.54770249  0.65961711  0.51946299     0.35100
H1426       H  0.58811386  0.70598973  0.49125318     0.40200
H1427       H  0.62238079  0.61649406  0.77362624     0.39800
H1428       H  0.64691544  0.59503535  0.81616674     0.34700
C1429       C  0.98641779  0.91084804  0.48038871    -0.27000
C1430       C  0.51342511  0.93351125  0.92967048    -0.15100
C1431       C  0.54182427  0.91971941  0.90433766     0.35600
C1432       C  0.54156318  0.88290667  0.92907555    -0.26400
C1433       C  0.51232673  0.85917077  0.97669142    -0.15700
C1434       C  0.98478526  0.87322630  0.50258339     0.36600
N1435       N  0.95508801  0.84895994  0.55165741    -0.89900
H1436       H  0.96513436  0.92146431  0.50140699     0.17800
H1437       H  0.56310508  0.87193288  0.91005255     0.17700
N1438       N  0.57022396  0.94243446  0.85330709    -0.89000
H1439       H  0.92314889  0.84143682  0.53874824     0.35100
H1440       H  0.96452506  0.86844837  0.59130212     0.40200
H1441       H  0.55060220  0.94085631  0.81578986     0.39800
H1442       H  0.58765968  0.92703040  0.83902758     0.34700
C1443       C  0.91736695  0.51661070  0.45419891    -0.27000
C1444       C  0.91375024  0.48922777  0.90476777    -0.15100
C1445       C  0.87158484  0.95555555  0.88626031     0.35600
C1446       C  0.83377229  0.95237667  0.91499021    -0.26400
C1447       C  0.83804380  0.48092445  0.96321571    -0.15700
C1448       C  0.88046207  0.51204086  0.48502466     0.36600
N1449       N  0.88760186  0.53911130  0.53886117    -0.89900
H1450       H  0.94960376  0.54058996  0.47161817     0.17800
H1451       H  0.80108836  0.92798786  0.89957980     0.17700
N1452       N  0.86734116  0.92454518  0.83970108    -0.89000
H1453       H  0.90741623  0.53371233  0.56997540     0.35100
H1454       H  0.85847246  0.52998992  0.56320084     0.40200
H1455       H  0.87913815  0.94095332  0.79774943     0.39800
H1456       H  0.83407640  0.90154895  0.83243969     0.34700
loop_ 
_geom_bond_atom_site_label_1 
_geom_bond_atom_site_label_2 
_geom_bond_distance 
_geom_bond_site_symmetry_2 
_ccdc_geom_bond_type 
Fe1          O17   2.149       .  S
Fe1           O7   2.037       .  S
Fe1          O14   2.048       .  S
Fe1           O6   2.131       .  S
Fe1          O12   1.929       .  S
Fe2           O5   2.135       .  S
Fe2           O9   2.039       .  S
Fe2          O13   2.143       .  S
Fe2          O18   2.062       .  S
Fe2          O12   1.940       .  S
Fe3          O21   2.041       .  S
Fe3           O8   2.131       .  S
Fe3          O15   2.135       .  S
Fe3           O4   2.052       .  S
Fe3          O12   1.939       .  S
O4           C11   1.268       .  A
O5           C19   1.281       .  A
O6           C11   1.277       .  A
O7           C10   1.272       .  A
O8           C20   1.275       .  A
O9           C22   1.272       .  A
C10          O15   1.281       .  A
C10          C93   1.478       .  S
C11          C40   1.478       .  S
O13          C16   1.276       .  A
O14          C16   1.263       .  A
C16          C46   1.481       .  S
O17          C22   1.284       .  A
O18          C20   1.269       .  A
C19          O21   1.273       .  A
C19          C81   1.479       .  S
C20          C34   1.479       .  S
C22          C87   1.487       .  S
C23         C170   1.476       .  S
C23         C752   1.401   1_565  A
C23         C392   1.392       .  A
C24          C25   1.399   1_655  A
C24         C751   1.401   1_545  A
C24          H29   1.085       .  S
C25         C142   1.483       .  S
C25          C26   1.411       .  A
C26         C391   1.409   1_545  A
C26          H30   1.082       .  S
C27         C156   1.485       .  S
C27         C390   1.409       .  A
C27         C756   1.403   1_455  A
C28         C387   1.392       .  A
C28         C755   1.403       .  A
C28          H31   1.084       .  S
C32          C60   1.483       .  S
C32          N33   1.379       .  A
C32          N37   1.360       .  A
N33         C580   1.375       .  A
C34          N35   1.348       .  A
C34         N579   1.375   1_545  A
N35         C400   1.342   1_545  A
C36         C537   1.459       .  S
C36         N399   1.342       .  A
C36         N219   1.346       .  A
N37         C218   1.346   1_554  A
C38          C69   1.483       .  S
C38          N39   1.373       .  A
C38          N43   1.358       .  A
N39         C222   1.369       .  A
C40          N41   1.352       .  A
C40         N221   1.369       .  A
N41          C42   1.349       .  A
C42         C145   1.478       .  S
C42         N225   1.351       .  A
N43         C224   1.351   1_554  A
C44          C65   1.483       .  S
C44          N49   1.358       .  A
C44         N227   1.379   1_455  A
N45         C226   1.379   1_655  A
N45         C774   1.375       .  A
C46          N47   1.352       .  A
C46         N773   1.375       .  A
N47         C776   1.344       .  A
C48         C159   1.459       .  S
C48         N775   1.344   1_455  A
C48         N231   1.344       .  A
N49         C230   1.344       .  A
Fe50         O66   2.152       .  S
Fe50         O56   2.058       .  S
Fe50         O63   2.033       .  S
Fe50         O55   2.135       .  S
Fe50         O61   1.940       .  S
Fe51         O54   2.131       .  S
Fe51         O58   2.042       .  S
Fe51         O62   2.142       .  S
Fe51         O67   2.036       .  S
Fe51         O61   1.931       .  S
Fe52         O70   2.048       .  S
Fe52         O57   2.143       .  S
Fe52         O64   2.118       .  S
Fe52         O53   2.044       .  S
Fe52         O61   1.927       .  S
O53          C60   1.275       .  A
O54          C68   1.275       .  A
O55          C60   1.281       .  A
O56          C59   1.269       .  A
O57          C69   1.283       .  A
O58          C71   1.261       .  A
C59          O64   1.274       .  A
C59          C85   1.473       .  S
O62          C65   1.277       .  A
O63          C65   1.269       .  A
O66          C71   1.279       .  A
O67          C69   1.271       .  A
C68          O70   1.263       .  A
C68          C95   1.474       .  S
C71          C91   1.483       .  S
C72         C103   1.487       .  S
C72         C437   1.398   1_545  A
C72         C805   1.409       .  A
C73          C74   1.399       .  A
C73         C436   1.398       .  A
C73          H78   1.083       .  S
C74         C128   1.469       .  S
C74          C75   1.399       .  A
C75         C804   1.396       .  A
C75          H79   1.083       .  S
C76         C117   1.471       .  S
C76         C803   1.396       .  A
C76         C441   1.400       .  A
C77         C800   1.409   1_455  A
C77         C440   1.400       .  A
C77          H80   1.084       .  S
C81          N82   1.359       .  A
C81         N450   1.374       .  A
N82         C447   1.350       .  A
C83         C114   1.464       .  S
C83          N84   1.344       .  A
C83         N446   1.350       .  A
N84          C85   1.353       .  A
C85          N86   1.371       .  A
N86         C445   1.374       .  A
C87          N88   1.363       .  A
C87         N820   1.376       .  A
N88          C89   1.352       .  A
C89         C100   1.495       .  S
C89         N818   1.348       .  A
N90          C91   1.357       .  A
N90         C817   1.348   1_455  A
C91          N92   1.373   1_455  A
N92         C815   1.376       .  A
C93          N94   1.376       .  A
C93          N98   1.359       .  A
N94          C95   1.372       .  A
C95          N96   1.353       .  A
N96          C97   1.345       .  A
C97         C131   1.472       .  S
C97          N98   1.348       .  A
C99         C100   1.405       .  A
C99         C104   1.408       .  A
C99         H106   1.083       .  S
C100        C829   1.420       .  A
C101        C102   1.389       .  A
C101        C828   1.420   1_455  A
C101        N108   1.421       .  S
C102        C831   1.392   1_455  A
C102        H107   1.083       .  S
C103        C104   1.418       .  A
C103        C830   1.392       .  A
C104        N105   1.435       .  S
N105        H109   1.046       .  S
N105        H110   1.043       .  S
N108        H111   1.043       .  S
N108        H112   1.043       .  S
C113        C114   1.404       .  A
C113        C118   1.408       .  A
C113        H120   1.082       .  S
C114        C479   1.404       .  A
C115        C116   1.395       .  A
C115        C478   1.404       .  A
C115        N122   1.440       .  S
C116        C481   1.399       .  A
C116        H121   1.085       .  S
C117        C118   1.416       .  A
C117        C480   1.399       .  A
C118        N119   1.438       .  S
N119        H123   1.046       .  S
N119        H124   1.044       .  S
N122        H125   1.045   1_545  S
N122        H126   1.041       .  S
C127        C128   1.395       .  A
C127        C132   1.395       .  A
C127        H134   1.084       .  S
C128        C129   1.415       .  A
C129        C130   1.392       .  A
C129        N136   1.429       .  S
C130        C131   1.398       .  A
C130        H135   1.085       .  S
C131        C132   1.418       .  A
C132        N133   1.430       .  S
N133        H137   1.045       .  S
N133        H138   1.038       .  S
N136        H139   1.046       .  S
N136        H140   1.043       .  S
C141        C142   1.406       .  A
C141        C328   1.403       .  A
C141        H330   1.083       .  S
C142        C143   1.404       .  A
C143        C144   1.400       .  A
C143        N150   1.427       .  S
C144        C145   1.403       .  A
C144        H149   1.084       .  S
C145        C328   1.411       .  A
C146        C323   1.403       .  A
C146        C327   1.411       .  A
C146        N147   1.436   1_556  S
N147        H151   1.045       .  S
N147        H152   1.046   1_554  S
H148        C323   1.083       .  S
N150        H153   1.045       .  S
N150        H154   1.044       .  S
C155        C160   1.393   1_556  A
C155       C1066   1.406       .  A
C155        H162   1.084   1_556  S
C156        C157   1.414       .  A
C156       C1065   1.406   1_455  A
C157        C158   1.408       .  A
C157        N164   1.432       .  S
C158        C159   1.397       .  A
C158        H163   1.084       .  S
C159       C1070   1.399   1_455  A
C160       C1069   1.399   1_554  A
C160        N161   1.432       .  S
N161        H165   1.045       .  S
N161        H166   1.041       .  S
N164        H167   1.041       .  S
N164        H168   1.046       .  S
C169        C174   1.385       .  A
C169        C352   1.401   1_545  A
C169        H176   1.084       .  S
C170        C351   1.401   1_565  A
C170        C535   1.414       .  A
C171        C172   1.410       .  A
C171        C534   1.414       .  A
C171        N178   1.438       .  S
C172        C537   1.404       .  A
C172        H177   1.084       .  S
C173        C400   1.459       .  S
C173        C536   1.404       .  A
C173        C356   1.414   1_565  A
C174        C355   1.414   1_545  A
C174        N175   1.443   1_556  S
N175        H179   1.046       .  S
N175        H180   1.042       .  S
N178        H181   1.043       .  S
N178        H182   1.046       .  S
Fe183       O199   2.149       .  S
Fe183       O189   2.037       .  S
Fe183       O196   2.048   1_556  S
Fe183       O188   2.131       .  S
Fe183       O194   1.929       .  S
Fe184       O187   2.135       .  S
Fe184       O191   2.039       .  S
Fe184       O195   2.143   1_556  S
Fe184       O200   2.062   1_556  S
Fe184       O194   1.940       .  S
Fe185       O203   2.041       .  S
Fe185       O190   2.131       .  S
Fe185       O197   2.135       .  S
Fe185       O186   2.052   1_556  S
Fe185       O194   1.939       .  S
O186        C193   1.268       .  A
O187        C201   1.281       .  A
O188        C193   1.277   1_556  A
O189        C192   1.272       .  A
O190        C202   1.275   1_556  A
O191        C204   1.272       .  A
C192        O197   1.281       .  A
C192        C275   1.478       .  S
C193        C222   1.478       .  S
O195        C198   1.276       .  A
O196        C198   1.263       .  A
C198        C228   1.481       .  S
O199        C204   1.284       .  A
O200        C202   1.269       .  A
C201        O203   1.273       .  A
C201        C263   1.479       .  S
C202        C216   1.479       .  S
C204        C269   1.487       .  S
C205        C352   1.476       .  S
C205        C934   1.401   1_565  A
C205        C574   1.392       .  A
C206        C933   1.401   1_545  A
C206        C207   1.399   1_655  A
C206        H211   1.085       .  S
C207        C324   1.483       .  S
C207        C208   1.411       .  A
C208        C573   1.409   1_545  A
C208        H212   1.082       .  S
C209        C338   1.485       .  S
C209        C572   1.409       .  A
C209        C938   1.403   1_455  A
C210        C569   1.392       .  A
C210        C937   1.403       .  A
C210        H213   1.084       .  S
C214        C242   1.483       .  S
C214        N215   1.379       .  A
C214        N219   1.360       .  A
N215        C398   1.375       .  A
C216        N397   1.375   1_545  A
C216        N217   1.348   1_554  A
N217        C582   1.342   1_545  A
C218        C719   1.459       .  S
C218        N581   1.342       .  A
C220        C251   1.483       .  S
C220        N221   1.373       .  A
C220        N225   1.358       .  A
C222        N223   1.352   1_554  A
N223        C224   1.349       .  A
C224        C327   1.478       .  S
C226        C247   1.483       .  S
C226        N231   1.358       .  A
N227        C956   1.375       .  A
C228        N955   1.375       .  A
C228        N229   1.352       .  A
N229        C958   1.344       .  A
C230        C341   1.459   1_554  S
C230        N957   1.344   1_455  A
Fe232       O248   2.152       .  S
Fe232       O238   2.058       .  S
Fe232       O245   2.033       .  S
Fe232       O237   2.135       .  S
Fe232       O243   1.940       .  S
Fe233       O236   2.131       .  S
Fe233       O240   2.042       .  S
Fe233       O244   2.142       .  S
Fe233       O249   2.036       .  S
Fe233       O243   1.931       .  S
Fe234       O252   2.048       .  S
Fe234       O239   2.143       .  S
Fe234       O246   2.118       .  S
Fe234       O235   2.044       .  S
Fe234       O243   1.927       .  S
O235        C242   1.275       .  A
O236        C250   1.275       .  A
O237        C242   1.281       .  A
O238        C241   1.269       .  A
O239        C251   1.283       .  A
O240        C253   1.261       .  A
C241        O246   1.274       .  A
C241        C267   1.473       .  S
O244        C247   1.277       .  A
O245        C247   1.269       .  A
O248        C253   1.279       .  A
O249        C251   1.271       .  A
C250        O252   1.263       .  A
C250        C277   1.474       .  S
C253        C273   1.483       .  S
C254        C285   1.487       .  S
C254        C619   1.398   1_545  A
C254        C987   1.409       .  A
C255        C618   1.398       .  A
C255        C256   1.399       .  A
C255        H260   1.083       .  S
C256        C310   1.469       .  S
C256        C257   1.399       .  A
C257        C986   1.396       .  A
C257        H261   1.083       .  S
C258        C299   1.471       .  S
C258        C985   1.396       .  A
C258        C623   1.400       .  A
C259        C982   1.409   1_455  A
C259        C622   1.400       .  A
C259        H262   1.084       .  S
C263        N264   1.359       .  A
C263        N632   1.374       .  A
N264        C629   1.350       .  A
C265        C296   1.464       .  S
C265        N628   1.350       .  A
C265        N266   1.344       .  A
N266        C267   1.353       .  A
C267        N268   1.371       .  A
N268        C627   1.374       .  A
C269        N270   1.363       .  A
C269       N1002   1.376       .  A
N270        C271   1.352       .  A
C271        C282   1.495       .  S
C271       N1000   1.348       .  A
N272        C999   1.348   1_455  A
N272        C273   1.357       .  A
C273        N274   1.373   1_455  A
N274        C997   1.376       .  A
C275        N276   1.376       .  A
C275        N280   1.359       .  A
N276        C277   1.372       .  A
C277        N278   1.353       .  A
N278        C279   1.345       .  A
C279        C313   1.472       .  S
C279        N280   1.348       .  A
C281        C282   1.405       .  A
C281        C286   1.408       .  A
C281        H288   1.083       .  S
C282       C1011   1.420       .  A
C283       C1010   1.420   1_455  A
C283        C284   1.389       .  A
C283        N290   1.421       .  S
C284       C1013   1.392   1_455  A
C284        H289   1.083       .  S
C285       C1012   1.392       .  A
C285        C286   1.418       .  A
C286        N287   1.435       .  S
N287        H291   1.046       .  S
N287        H292   1.043       .  S
N290        H293   1.043       .  S
N290        H294   1.043       .  S
C295        C296   1.404       .  A
C295        C300   1.408       .  A
C295        H302   1.082       .  S
C296        C661   1.404       .  A
C297        C660   1.404       .  A
C297        C298   1.395       .  A
C297        N304   1.440       .  S
C298        C663   1.399       .  A
C298        H303   1.085       .  S
C299        C662   1.399       .  A
C299        C300   1.416       .  A
C300        N301   1.438       .  S
N301        H305   1.046       .  S
N301        H306   1.044       .  S
N304        H307   1.045   1_545  S
N304        H308   1.041       .  S
C309        C310   1.395       .  A
C309        C314   1.395       .  A
C309        H316   1.084       .  S
C310        C311   1.415       .  A
C311        C312   1.392       .  A
C311        N318   1.429       .  S
C312        C313   1.398       .  A
C312        H317   1.085       .  S
C313        C314   1.418       .  A
C314        N315   1.430       .  S
N315        H319   1.045       .  S
N315        H320   1.038       .  S
N318        H321   1.046       .  S
N318        H322   1.043       .  S
C323        C324   1.406       .  A
C324        C325   1.404       .  A
C325        C326   1.400       .  A
C325        N332   1.427       .  S
C326        C327   1.403       .  A
C326        H331   1.084       .  S
C328        N329   1.436       .  S
N329        H333   1.045       .  S
N329        H334   1.046       .  S
N332        H335   1.045       .  S
N332        H336   1.044       .  S
C337        C884   1.406       .  A
C337        C342   1.393       .  A
C337        H344   1.084       .  S
C338        C883   1.406   1_455  A
C338        C339   1.414       .  A
C339        C340   1.408       .  A
C339        N346   1.432       .  S
C340        C341   1.397       .  A
C340        H345   1.084       .  S
C341        C888   1.399   1_456  A
C342        C887   1.399       .  A
C342        N343   1.432       .  S
N343        H347   1.045       .  S
N343        H348   1.041       .  S
N346        H349   1.041       .  S
N346        H350   1.046       .  S
C351        C356   1.385       .  A
C351        H358   1.084       .  S
C352        C717   1.414       .  A
C353        C716   1.414       .  A
C353        C354   1.410       .  A
C353        N360   1.438       .  S
C354        C719   1.404       .  A
C354        H359   1.084       .  S
C355        C582   1.459       .  S
C355        C718   1.404       .  A
C356        N357   1.443       .  S
N357        H361   1.046       .  S
N357        H362   1.042       .  S
N360        H363   1.043       .  S
N360        H364   1.046       .  S
Fe365       O381   2.149       .  S
Fe365       O371   2.037       .  S
Fe365       O378   2.048       .  S
Fe365       O370   2.131       .  S
Fe365       O376   1.929       .  S
Fe366       O369   2.135       .  S
Fe366       O373   2.039       .  S
Fe366       O377   2.143       .  S
Fe366       O382   2.062       .  S
Fe366       O376   1.940       .  S
Fe367       O385   2.041       .  S
Fe367       O372   2.131       .  S
Fe367       O379   2.135       .  S
Fe367       O368   2.052       .  S
Fe367       O376   1.939       .  S
O368        C375   1.268       .  A
O369        C383   1.281       .  A
O370        C375   1.277       .  A
O371        C374   1.272       .  A
O372        C384   1.275       .  A
O373        C386   1.272       .  A
C374        O379   1.281       .  A
C374        C457   1.478       .  S
C375        C404   1.478       .  S
O377        C380   1.276       .  A
O378        C380   1.263       .  A
C380        C410   1.481       .  S
O381        C386   1.284       .  A
O382        C384   1.269       .  A
C383        O385   1.273       .  A
C383        C445   1.479       .  S
C384        C398   1.479       .  S
C386        C451   1.487       .  S
C387        C534   1.476       .  S
C387       C1116   1.401       .  A
C388       C1115   1.401       .  A
C388        C389   1.399   1_655  A
C388        H393   1.085       .  S
C389        C506   1.483       .  S
C389        C390   1.411       .  A
C390        H394   1.082       .  S
C391        C520   1.485       .  S
C391       C1120   1.403   1_455  A
C392       C1119   1.403       .  A
C392        H395   1.084       .  S
C396        C424   1.483       .  S
C396        N397   1.379       .  A
C396        N401   1.360       .  A
C398        N399   1.348       .  A
C400        N583   1.346       .  A
N401        C582   1.346   1_554  A
C402        C433   1.483       .  S
C402        N403   1.373       .  A
C402        N407   1.358       .  A
N403        C586   1.369       .  A
C404        N585   1.369       .  A
C404        N405   1.352       .  A
N405        C406   1.349       .  A
C406        C509   1.478       .  S
C406        N589   1.351       .  A
N407        C588   1.351   1_554  A
C408        C429   1.483       .  S
C408        N591   1.379   1_455  A
C408        N413   1.358       .  A
N409        C590   1.379   1_655  A
N409       C1138   1.375       .  A
C410       N1137   1.375       .  A
C410        N411   1.352       .  A
N411       C1140   1.344       .  A
C412        C523   1.459       .  S
C412       N1139   1.344   1_455  A
C412        N595   1.344       .  A
N413        C594   1.344       .  A
Fe414       O430   2.152       .  S
Fe414       O420   2.058       .  S
Fe414       O427   2.033       .  S
Fe414       O419   2.135       .  S
Fe414       O425   1.940       .  S
Fe415       O418   2.131       .  S
Fe415       O422   2.042       .  S
Fe415       O426   2.142       .  S
Fe415       O431   2.036       .  S
Fe415       O425   1.931       .  S
Fe416       O434   2.048       .  S
Fe416       O421   2.143       .  S
Fe416       O428   2.118       .  S
Fe416       O417   2.044       .  S
Fe416       O425   1.927       .  S
O417        C424   1.275       .  A
O418        C432   1.275       .  A
O419        C424   1.281       .  A
O420        C423   1.269       .  A
O421        C433   1.283       .  A
O422        C435   1.261       .  A
C423        O428   1.274       .  A
C423        C449   1.473       .  S
O426        C429   1.277       .  A
O427        C429   1.269       .  A
O430        C435   1.279       .  A
O431        C433   1.271       .  A
C432        O434   1.263       .  A
C432        C459   1.474       .  S
C435        C455   1.483       .  S
C436        C467   1.487       .  S
C436       C1169   1.409       .  A
C437        C438   1.399       .  A
C437        H442   1.083       .  S
C438        C492   1.469       .  S
C438        C439   1.399       .  A
C439       C1168   1.396   1_565  A
C439        H443   1.083       .  S
C440        C481   1.471       .  S
C440       C1167   1.396   1_545  A
C441       C1164   1.409   1_455  A
C441        H444   1.084       .  S
C445        N446   1.359       .  A
C447        C478   1.464       .  S
C447        N448   1.344   1_545  A
N448        C449   1.353       .  A
C449        N450   1.371   1_565  A
C451        N452   1.363       .  A
C451       N1184   1.376       .  A
N452        C453   1.352       .  A
C453        C464   1.495       .  S
C453       N1182   1.348       .  A
N454       C1181   1.348   1_455  A
N454        C455   1.357       .  A
C455        N456   1.373   1_455  A
N456       C1179   1.376       .  A
C457        N458   1.376       .  A
C457        N462   1.359       .  A
N458        C459   1.372       .  A
C459        N460   1.353       .  A
N460        C461   1.345       .  A
C461        C495   1.472       .  S
C461        N462   1.348       .  A
C463        C464   1.405       .  A
C463        C468   1.408       .  A
C463        H470   1.083       .  S
C464       C1193   1.420       .  A
C465       C1192   1.420   1_455  A
C465        C466   1.389       .  A
C465        N472   1.421       .  S
C466       C1195   1.393   1_455  A
C466        H471   1.083       .  S
C467       C1194   1.393       .  A
C467        C468   1.418       .  A
C468        N469   1.435       .  S
N469        H473   1.046       .  S
N469        H474   1.043       .  S
N472        H475   1.043       .  S
N472        H476   1.043       .  S
C477        C478   1.404       .  A
C477        C482   1.408       .  A
C477        H484   1.082       .  S
C479        C480   1.395       .  A
C479        N486   1.440       .  S
C480        H485   1.085       .  S
C481        C482   1.416       .  A
C482        N483   1.438       .  S
N483        H487   1.046       .  S
N483        H488   1.044       .  S
N486        H489   1.045       .  S
N486        H490   1.041       .  S
C491        C492   1.395       .  A
C491        C496   1.395       .  A
C491        H498   1.084       .  S
C492        C493   1.415       .  A
C493        C494   1.392       .  A
C493        N500   1.429       .  S
C494        C495   1.398       .  A
C494        H499   1.085       .  S
C495        C496   1.418       .  A
C496        N497   1.430       .  S
N497        H501   1.045       .  S
N497        H502   1.038       .  S
N500        H503   1.046       .  S
N500        H504   1.043       .  S
C505        C506   1.406       .  A
C505        C692   1.403       .  A
C505        H694   1.083       .  S
C506        C507   1.404       .  A
C507        C508   1.400       .  A
C507        N514   1.427       .  S
C508        C509   1.403       .  A
C508        H513   1.084       .  S
C509        C692   1.411       .  A
C510        C687   1.403       .  A
C510        C691   1.411       .  A
C510        N511   1.436   1_556  S
N511        H515   1.045       .  S
N511        H516   1.046   1_554  S
H512        C687   1.083       .  S
N514        H517   1.045       .  S
N514        H518   1.044       .  S
C519       C1430   1.407       .  A
C519        C524   1.393   1_556  A
C519        H526   1.084   1_556  S
C520       C1429   1.407   1_455  A
C520        C521   1.414       .  A
C521        C522   1.408       .  A
C521        N528   1.432       .  S
C522        C523   1.397       .  A
C522        H527   1.084       .  S
C523       C1434   1.399   1_455  A
C524       C1433   1.399   1_554  A
C524        N525   1.432       .  S
N525        H529   1.045       .  S
N525        H530   1.041       .  S
N528        H531   1.041       .  S
N528        H532   1.046       .  S
C533        C716   1.401       .  A
C533        C538   1.385       .  A
C533        H540   1.084       .  S
C534        C715   1.401       .  A
C535        C536   1.410       .  A
C535        N542   1.438       .  S
C536        H541   1.084       .  S
C537        C720   1.414       .  A
C538        C719   1.414       .  A
C538        N539   1.443   1_556  S
N539        H543   1.046       .  S
N539        H544   1.042       .  S
N542        H545   1.043       .  S
N542        H546   1.046       .  S
Fe547       O563   2.149       .  S
Fe547       O553   2.037       .  S
Fe547       O560   2.048   1_556  S
Fe547       O552   2.131       .  S
Fe547       O558   1.929       .  S
Fe548       O551   2.135       .  S
Fe548       O555   2.039       .  S
Fe548       O559   2.143   1_556  S
Fe548       O564   2.062   1_556  S
Fe548       O558   1.940       .  S
Fe549       O567   2.041       .  S
Fe549       O554   2.131       .  S
Fe549       O561   2.135       .  S
Fe549       O550   2.052   1_556  S
Fe549       O558   1.939       .  S
O550        C557   1.268       .  A
O551        C565   1.281       .  A
O552        C557   1.277   1_556  A
O553        C556   1.272       .  A
O554        C566   1.275   1_556  A
O555        C568   1.272       .  A
C556        O561   1.281       .  A
C556        C639   1.478       .  S
C557        C586   1.478       .  S
O559        C562   1.276       .  A
O560        C562   1.263       .  A
C562        C592   1.481       .  S
O563        C568   1.284       .  A
O564        C566   1.269       .  A
C565        O567   1.273       .  A
C565        C627   1.479       .  S
C566        C580   1.479       .  S
C568        C633   1.487       .  S
C569        C716   1.476       .  S
C569       C1298   1.401       .  A
C570       C1297   1.401       .  A
C570        C571   1.399   1_655  A
C570        H575   1.085       .  S
C571        C688   1.483       .  S
C571        C572   1.411       .  A
C572        H576   1.082       .  S
C573        C702   1.485       .  S
C573       C1302   1.403   1_455  A
C574       C1301   1.403       .  A
C574        H577   1.084       .  S
C578        C606   1.483       .  S
C578        N579   1.379       .  A
C578        N583   1.360       .  A
C580        N581   1.348   1_554  A
C584        C615   1.483       .  S
C584        N585   1.373       .  A
C584        N589   1.358       .  A
C586        N587   1.352   1_554  A
N587        C588   1.349       .  A
C588        C691   1.478       .  S
C590        C611   1.483       .  S
C590        N595   1.358       .  A
N591       C1320   1.375       .  A
C592       N1319   1.375       .  A
C592        N593   1.352       .  A
N593       C1322   1.344       .  A
C594        C705   1.459   1_554  S
C594       N1321   1.344   1_455  A
Fe596       O612   2.152       .  S
Fe596       O602   2.058       .  S
Fe596       O609   2.033       .  S
Fe596       O601   2.135       .  S
Fe596       O607   1.940       .  S
Fe597       O600   2.131       .  S
Fe597       O604   2.042       .  S
Fe597       O608   2.142       .  S
Fe597       O613   2.036       .  S
Fe597       O607   1.931       .  S
Fe598       O616   2.048       .  S
Fe598       O603   2.143       .  S
Fe598       O610   2.118       .  S
Fe598       O599   2.044       .  S
Fe598       O607   1.927       .  S
O599        C606   1.275       .  A
O600        C614   1.275       .  A
O601        C606   1.281       .  A
O602        C605   1.269       .  A
O603        C615   1.283       .  A
O604        C617   1.261       .  A
C605        O610   1.274       .  A
C605        C631   1.473       .  S
O608        C611   1.277       .  A
O609        C611   1.269       .  A
O612        C617   1.279       .  A
O613        C615   1.271       .  A
C614        O616   1.263       .  A
C614        C641   1.474       .  S
C617        C637   1.483       .  S
C618        C649   1.487       .  S
C618       C1351   1.409       .  A
C619        C620   1.399       .  A
C619        H624   1.083       .  S
C620        C674   1.469       .  S
C620        C621   1.399       .  A
C621       C1350   1.396   1_565  A
C621        H625   1.083       .  S
C622        C663   1.471       .  S
C622       C1349   1.396   1_545  A
C623       C1346   1.409   1_455  A
C623        H626   1.084       .  S
C627        N628   1.359       .  A
C629        C660   1.464       .  S
C629        N630   1.344   1_545  A
N630        C631   1.353       .  A
C631        N632   1.371   1_565  A
C633        N634   1.363       .  A
C633       N1366   1.376       .  A
N634        C635   1.352       .  A
C635        C646   1.495       .  S
C635       N1364   1.348       .  A
N636       C1363   1.348   1_455  A
N636        C637   1.357       .  A
C637        N638   1.373   1_455  A
N638       C1361   1.376       .  A
C639        N640   1.376       .  A
C639        N644   1.359       .  A
N640        C641   1.372       .  A
C641        N642   1.353       .  A
N642        C643   1.345       .  A
C643        C677   1.472       .  S
C643        N644   1.348       .  A
C645        C646   1.405       .  A
C645        C650   1.408       .  A
C645        H652   1.083       .  S
C646       C1375   1.420       .  A
C647       C1374   1.420   1_455  A
C647        C648   1.389       .  A
C647        N654   1.421       .  S
C648       C1377   1.393   1_455  A
C648        H653   1.083       .  S
C649       C1376   1.393       .  A
C649        C650   1.418       .  A
C650        N651   1.435       .  S
N651        H655   1.046       .  S
N651        H656   1.043       .  S
N654        H657   1.043       .  S
N654        H658   1.043       .  S
C659        C660   1.404       .  A
C659        C664   1.408       .  A
C659        H666   1.082       .  S
C661        C662   1.395       .  A
C661        N668   1.440       .  S
C662        H667   1.085       .  S
C663        C664   1.416       .  A
C664        N665   1.438       .  S
N665        H669   1.046       .  S
N665        H670   1.044       .  S
N668        H671   1.045       .  S
N668        H672   1.041       .  S
C673        C674   1.395       .  A
C673        C678   1.395       .  A
C673        H680   1.084       .  S
C674        C675   1.415       .  A
C675        C676   1.392       .  A
C675        N682   1.429       .  S
C676        C677   1.398       .  A
C676        H681   1.085       .  S
C677        C678   1.418       .  A
C678        N679   1.430       .  S
N679        H683   1.045       .  S
N679        H684   1.038       .  S
N682        H685   1.046       .  S
N682        H686   1.043       .  S
C687        C688   1.406       .  A
C688        C689   1.404       .  A
C689        C690   1.400       .  A
C689        N696   1.427       .  S
C690        C691   1.403       .  A
C690        H695   1.084       .  S
C692        N693   1.436       .  S
N693        H697   1.045       .  S
N693        H698   1.046       .  S
N696        H699   1.045       .  S
N696        H700   1.044       .  S
C701       C1248   1.407       .  A
C701        C706   1.393       .  A
C701        H708   1.084       .  S
C702       C1247   1.407   1_455  A
C702        C703   1.414       .  A
C703        C704   1.408       .  A
C703        N710   1.432       .  S
C704        C705   1.397       .  A
C704        H709   1.084       .  S
C705       C1252   1.399   1_456  A
C706       C1251   1.399       .  A
C706        N707   1.432       .  S
N707        H711   1.045       .  S
N707        H712   1.041       .  S
N710        H713   1.041       .  S
N710        H714   1.046       .  S
C715        C720   1.385       .  A
C715        H722   1.084       .  S
C717        C718   1.410       .  A
C717        N724   1.438       .  S
C718        H723   1.084       .  S
C720        N721   1.443       .  S
N721        H725   1.046       .  S
N721        H726   1.042       .  S
N724        H727   1.043       .  S
N724        H728   1.046       .  S
Fe729       O745   2.149       .  S
Fe729       O735   2.037       .  S
Fe729       O742   2.048       .  S
Fe729       O734   2.131       .  S
Fe729       O740   1.929       .  S
Fe730       O733   2.135       .  S
Fe730       O737   2.039       .  S
Fe730       O741   2.143       .  S
Fe730       O746   2.062       .  S
Fe730       O740   1.940       .  S
Fe731       O749   2.041       .  S
Fe731       O736   2.131       .  S
Fe731       O743   2.135       .  S
Fe731       O732   2.052       .  S
Fe731       O740   1.939       .  S
O732        C739   1.268       .  A
O733        C747   1.281       .  A
O734        C739   1.277       .  A
O735        C738   1.272       .  A
O736        C748   1.275       .  A
O737        C750   1.272       .  A
C738        O743   1.281       .  A
C738        C821   1.478       .  S
C739        C768   1.478       .  S
O741        C744   1.276       .  A
O742        C744   1.263       .  A
C744        C774   1.481       .  S
O745        C750   1.284       .  A
O746        C748   1.269       .  A
C747        O749   1.273       .  A
C747        C809   1.479       .  S
C748        C762   1.479       .  S
C750        C815   1.487       .  S
C751        C898   1.476       .  S
C751       C1120   1.392       .  A
C752        C753   1.399       .  A
C752        H757   1.085       .  S
C753        C870   1.483       .  S
C753        C754   1.411       .  A
C754       C1119   1.409   1_545  A
C754        H758   1.082       .  S
C755        C884   1.485       .  S
C755       C1118   1.409       .  A
C756       C1115   1.392       .  A
C756        H759   1.084       .  S
C760        C788   1.483       .  S
C760        N761   1.379       .  A
C760        N765   1.360       .  A
N761       C1308   1.375       .  A
C762       N1307   1.375   1_545  A
C762        N763   1.348       .  A
N763       C1128   1.342   1_545  A
C764       C1265   1.459       .  S
C764       N1127   1.342       .  A
C764        N947   1.346       .  A
N765        C946   1.346   1_554  A
C766        C797   1.483       .  S
C766        N767   1.373       .  A
C766        N771   1.358       .  A
N767        C950   1.369       .  A
C768        N949   1.369       .  A
C768        N769   1.352       .  A
N769        C770   1.349       .  A
C770        C873   1.478       .  S
C770        N953   1.351       .  A
N771        C952   1.351   1_554  A
C772        C793   1.483       .  S
C772        N955   1.379       .  A
C772        N777   1.358       .  A
N773        C954   1.379       .  A
C774        N775   1.352       .  A
C776        C887   1.459       .  S
C776        N959   1.344       .  A
N777        C958   1.344       .  A
Fe778       O794   2.152       .  S
Fe778       O784   2.058       .  S
Fe778       O791   2.033       .  S
Fe778       O783   2.135       .  S
Fe778       O789   1.940       .  S
Fe779       O782   2.131       .  S
Fe779       O786   2.042       .  S
Fe779       O790   2.142       .  S
Fe779       O795   2.036       .  S
Fe779       O789   1.931       .  S
Fe780       O798   2.048       .  S
Fe780       O785   2.143       .  S
Fe780       O792   2.118       .  S
Fe780       O781   2.044       .  S
Fe780       O789   1.927       .  S
O781        C788   1.275       .  A
O782        C796   1.275       .  A
O783        C788   1.281       .  A
O784        C787   1.269       .  A
O785        C797   1.283       .  A
O786        C799   1.261       .  A
C787        O792   1.274       .  A
C787        C813   1.473       .  S
O790        C793   1.277       .  A
O791        C793   1.269       .  A
O794        C799   1.279       .  A
O795        C797   1.271       .  A
C796        O798   1.263       .  A
C796        C823   1.474       .  S
C799        C819   1.483       .  S
C800        C831   1.487       .  S
C800       C1165   1.398   1_545  A
C801       C1164   1.398       .  A
C801        C802   1.399       .  A
C801        H806   1.083       .  S
C802        C856   1.469       .  S
C802        C803   1.399   1_655  A
C803        H807   1.083       .  S
C804        C845   1.471       .  S
C804       C1169   1.400       .  A
C805       C1168   1.400       .  A
C805        H808   1.084       .  S
C809        N810   1.359       .  A
C809       N1178   1.374       .  A
N810       C1175   1.350       .  A
C811        C842   1.464       .  S
C811       N1174   1.350       .  A
C811        N812   1.344       .  A
N812        C813   1.353       .  A
C813        N814   1.371       .  A
N814       C1173   1.374       .  A
C815        N816   1.363       .  A
N816        C817   1.352       .  A
C817        C828   1.495       .  S
N818        C819   1.357       .  A
C819        N820   1.373       .  A
C821        N822   1.376       .  A
C821        N826   1.359       .  A
N822        C823   1.372       .  A
C823        N824   1.353       .  A
N824        C825   1.345       .  A
C825        C859   1.472       .  S
C825        N826   1.348       .  A
C827        C828   1.405       .  A
C827        C832   1.408       .  A
C827        H834   1.083       .  S
C829        C830   1.389       .  A
C829        N836   1.421       .  S
C830        H835   1.083       .  S
C831        C832   1.418       .  A
C832        N833   1.435       .  S
N833        H837   1.046       .  S
N833        H838   1.043       .  S
N836        H839   1.043       .  S
N836        H840   1.043       .  S
C841        C842   1.404       .  A
C841        C846   1.408       .  A
C841        H848   1.082       .  S
C842       C1207   1.404       .  A
C843       C1206   1.404       .  A
C843        C844   1.395       .  A
C843        N850   1.440       .  S
C844       C1209   1.399       .  A
C844        H849   1.085       .  S
C845       C1208   1.399       .  A
C845        C846   1.416       .  A
C846        N847   1.438       .  S
N847        H851   1.046       .  S
N847        H852   1.044       .  S
N850        H853   1.045   1_545  S
N850        H854   1.041       .  S
C855        C856   1.395       .  A
C855        C860   1.395       .  A
C855        H862   1.084       .  S
C856        C857   1.415       .  A
C857        C858   1.392       .  A
C857        N864   1.429       .  S
C858        C859   1.398       .  A
C858        H863   1.085       .  S
C859        C860   1.418       .  A
C860        N861   1.430       .  S
N861        H865   1.045       .  S
N861        H866   1.038       .  S
N864        H867   1.046       .  S
N864        H868   1.043   1_655  S
C869        C870   1.406       .  A
C869       C1056   1.403       .  A
C869       H1058   1.083       .  S
C870        C871   1.404       .  A
C871        C872   1.400       .  A
C871        N878   1.427       .  S
C872        C873   1.403       .  A
C872        H877   1.084       .  S
C873       C1056   1.411       .  A
C874       C1051   1.403       .  A
C874       C1055   1.411       .  A
C874        N875   1.436   1_556  S
N875        H879   1.045       .  S
N875        H880   1.046   1_554  S
H876       C1051   1.083       .  S
N878        H881   1.045       .  S
N878        H882   1.044       .  S
C883        C888   1.393   1_556  A
C883        H890   1.084   1_556  S
C884        C885   1.414       .  A
C885        C886   1.408       .  A
C885        N892   1.432       .  S
C886        C887   1.397       .  A
C886        H891   1.084       .  S
C888        N889   1.432       .  S
N889        H893   1.045       .  S
N889        H894   1.041       .  S
N892        H895   1.041       .  S
N892        H896   1.046       .  S
C897       C1080   1.401   1_545  A
C897        C902   1.385       .  A
C897        H904   1.084       .  S
C898       C1079   1.401   1_565  A
C898       C1263   1.414       .  A
C899       C1262   1.414       .  A
C899        C900   1.410       .  A
C899        N906   1.438       .  S
C900       C1265   1.404       .  A
C900        H905   1.084       .  S
C901       C1128   1.459       .  S
C901       C1264   1.404       .  A
C901       C1084   1.414   1_565  A
C902       C1083   1.414   1_545  A
C902        N903   1.443   1_556  S
N903        H907   1.046       .  S
N903        H908   1.042       .  S
N906        H909   1.043       .  S
N906        H910   1.046       .  S
Fe911       O927   2.149       .  S
Fe911       O917   2.037       .  S
Fe911       O924   2.048   1_556  S
Fe911       O916   2.131       .  S
Fe911       O922   1.929       .  S
Fe912       O915   2.135       .  S
Fe912       O919   2.039       .  S
Fe912       O923   2.143   1_556  S
Fe912       O928   2.062   1_556  S
Fe912       O922   1.940       .  S
Fe913       O931   2.041       .  S
Fe913       O918   2.131       .  S
Fe913       O925   2.135       .  S
Fe913       O914   2.052   1_556  S
Fe913       O922   1.939       .  S
O914        C921   1.268       .  A
O915        C929   1.281       .  A
O916        C921   1.277   1_556  A
O917        C920   1.272       .  A
O918        C930   1.275   1_556  A
O919        C932   1.272       .  A
C920        O925   1.281       .  A
C920       C1003   1.478       .  S
C921        C950   1.478       .  S
O923        C926   1.276       .  A
O924        C926   1.263       .  A
C926        C956   1.481       .  S
O927        C932   1.284       .  A
O928        C930   1.269       .  A
C929        O931   1.273       .  A
C929        C991   1.479       .  S
C930        C944   1.479       .  S
C932        C997   1.487       .  S
C933       C1080   1.476       .  S
C933       C1302   1.392       .  A
C934        C935   1.399       .  A
C934        H939   1.085       .  S
C935       C1052   1.483       .  S
C935        C936   1.411       .  A
C936       C1301   1.409   1_545  A
C936        H940   1.082       .  S
C937       C1066   1.485       .  S
C937       C1300   1.409       .  A
C938       C1297   1.392       .  A
C938        H941   1.084       .  S
C942        C970   1.483       .  S
C942        N943   1.379       .  A
C942        N947   1.360       .  A
N943       C1126   1.375       .  A
C944       N1125   1.375   1_545  A
C944        N945   1.348   1_554  A
N945       C1310   1.342   1_545  A
C946       C1447   1.459       .  S
C946       N1309   1.342       .  A
C948        C979   1.483       .  S
C948        N949   1.373       .  A
C948        N953   1.358       .  A
C950        N951   1.352   1_554  A
N951        C952   1.349       .  A
C952       C1055   1.478       .  S
C954        C975   1.483       .  S
C954        N959   1.358       .  A
C956        N957   1.352       .  A
C958       C1069   1.459   1_554  S
Fe960       O976   2.152       .  S
Fe960       O966   2.058       .  S
Fe960       O973   2.033       .  S
Fe960       O965   2.135       .  S
Fe960       O971   1.940       .  S
Fe961       O964   2.131       .  S
Fe961       O968   2.042       .  S
Fe961       O972   2.142       .  S
Fe961       O977   2.036       .  S
Fe961       O971   1.931       .  S
Fe962       O980   2.048       .  S
Fe962       O967   2.143       .  S
Fe962       O974   2.118       .  S
Fe962       O963   2.044       .  S
Fe962       O971   1.927       .  S
O963        C970   1.275       .  A
O964        C978   1.275       .  A
O965        C970   1.281       .  A
O966        C969   1.269       .  A
O967        C979   1.283       .  A
O968        C981   1.261       .  A
C969        O974   1.274       .  A
C969        C995   1.473       .  S
O972        C975   1.277       .  A
O973        C975   1.269       .  A
O976        C981   1.279       .  A
O977        C979   1.271       .  A
C978        O980   1.263       .  A
C978       C1005   1.474       .  S
C981       C1001   1.483       .  S
C982       C1013   1.487       .  S
C982       C1347   1.398   1_545  A
C983       C1346   1.398       .  A
C983        C984   1.399       .  A
C983        H988   1.083       .  S
C984       C1038   1.469       .  S
C984        C985   1.399   1_655  A
C985        H989   1.083       .  S
C986       C1027   1.471       .  S
C986       C1351   1.400       .  A
C987       C1350   1.400       .  A
C987        H990   1.084       .  S
C991        N992   1.359       .  A
C991       N1360   1.374       .  A
N992       C1357   1.350       .  A
C993       C1024   1.464       .  S
C993       N1356   1.350       .  A
C993        N994   1.344       .  A
N994        C995   1.353       .  A
C995        N996   1.371       .  A
N996       C1355   1.374       .  A
C997        N998   1.363       .  A
N998        C999   1.352       .  A
C999       C1010   1.495       .  S
N1000      C1001   1.357       .  A
C1001      N1002   1.373       .  A
C1003      N1004   1.376       .  A
C1003      N1008   1.359       .  A
N1004      C1005   1.372       .  A
C1005      N1006   1.353       .  A
N1006      C1007   1.345       .  A
C1007      C1041   1.472       .  S
C1007      N1008   1.348       .  A
C1009      C1010   1.405       .  A
C1009      C1014   1.408       .  A
C1009      H1016   1.083       .  S
C1011      C1012   1.389       .  A
C1011      N1018   1.421       .  S
C1012      H1017   1.083       .  S
C1013      C1014   1.418       .  A
C1014      N1015   1.435       .  S
N1015      H1019   1.046       .  S
N1015      H1020   1.043       .  S
N1018      H1021   1.043       .  S
N1018      H1022   1.043       .  S
C1023      C1024   1.404       .  A
C1023      C1028   1.408       .  A
C1023      H1030   1.082       .  S
C1024      C1389   1.404       .  A
C1025      C1388   1.404       .  A
C1025      C1026   1.395       .  A
C1025      N1032   1.440       .  S
C1026      C1391   1.399       .  A
C1026      H1031   1.085       .  S
C1027      C1390   1.399       .  A
C1027      C1028   1.416       .  A
C1028      N1029   1.438       .  S
N1029      H1033   1.046       .  S
N1029      H1034   1.044       .  S
N1032      H1035   1.045   1_545  S
N1032      H1036   1.041       .  S
C1037      C1038   1.395       .  A
C1037      C1042   1.395       .  A
C1037      H1044   1.084       .  S
C1038      C1039   1.415       .  A
C1039      C1040   1.392       .  A
C1039      N1046   1.429       .  S
C1040      C1041   1.398       .  A
C1040      H1045   1.085       .  S
C1041      C1042   1.418       .  A
C1042      N1043   1.430       .  S
N1043      H1047   1.045       .  S
N1043      H1048   1.038       .  S
N1046      H1049   1.046       .  S
N1046      H1050   1.043   1_655  S
C1051      C1052   1.406       .  A
C1052      C1053   1.404       .  A
C1053      C1054   1.400       .  A
C1053      N1060   1.427       .  S
C1054      C1055   1.403       .  A
C1054      H1059   1.084       .  S
C1056      N1057   1.436       .  S
N1057      H1061   1.045       .  S
N1057      H1062   1.046       .  S
N1060      H1063   1.045       .  S
N1060      H1064   1.044       .  S
C1065      C1070   1.393       .  A
C1065      H1072   1.084       .  S
C1066      C1067   1.414       .  A
C1067      C1068   1.408       .  A
C1067      N1074   1.432       .  S
C1068      C1069   1.397       .  A
C1068      H1073   1.084       .  S
C1070      N1071   1.432       .  S
N1071      H1075   1.045       .  S
N1071      H1076   1.041       .  S
N1074      H1077   1.041       .  S
N1074      H1078   1.046       .  S
C1079      C1084   1.385       .  A
C1079      H1086   1.084       .  S
C1080      C1445   1.414       .  A
C1081      C1444   1.414       .  A
C1081      C1082   1.410       .  A
C1081      N1088   1.438       .  S
C1082      C1447   1.404       .  A
C1082      H1087   1.084       .  S
C1083      C1310   1.459       .  S
C1083      C1446   1.404       .  A
C1084      N1085   1.443       .  S
N1085      H1089   1.046       .  S
N1085      H1090   1.042       .  S
N1088      H1091   1.043       .  S
N1088      H1092   1.046       .  S
Fe1093     O1109   2.149       .  S
Fe1093     O1099   2.037       .  S
Fe1093     O1106   2.048       .  S
Fe1093     O1098   2.131       .  S
Fe1093     O1104   1.929       .  S
Fe1094     O1097   2.135       .  S
Fe1094     O1101   2.039       .  S
Fe1094     O1105   2.143       .  S
Fe1094     O1110   2.062       .  S
Fe1094     O1104   1.940       .  S
Fe1095     O1113   2.041       .  S
Fe1095     O1100   2.131       .  S
Fe1095     O1107   2.135       .  S
Fe1095     O1096   2.052       .  S
Fe1095     O1104   1.939       .  S
O1096      C1103   1.268       .  A
O1097      C1111   1.281       .  A
O1098      C1103   1.277       .  A
O1099      C1102   1.272       .  A
O1100      C1112   1.275       .  A
O1101      C1114   1.272       .  A
C1102      O1107   1.281       .  A
C1102      C1185   1.478       .  S
C1103      C1132   1.478       .  S
O1105      C1108   1.276       .  A
O1106      C1108   1.263       .  A
C1108      C1138   1.481       .  S
O1109      C1114   1.284       .  A
O1110      C1112   1.269       .  A
C1111      O1113   1.273       .  A
C1111      C1173   1.479       .  S
C1112      C1126   1.479       .  S
C1114      C1179   1.487       .  S
C1115      C1262   1.476       .  S
C1116      C1117   1.399       .  A
C1116      H1121   1.085       .  S
C1117      C1234   1.483       .  S
C1117      C1118   1.411       .  A
C1118      H1122   1.082       .  S
C1119      C1248   1.485       .  S
C1120      H1123   1.084       .  S
C1124      C1152   1.483       .  S
C1124      N1125   1.379       .  A
C1124      N1129   1.360       .  A
C1126      N1127   1.348       .  A
C1128      N1311   1.346       .  A
N1129      C1310   1.346   1_554  A
C1130      C1161   1.483       .  S
C1130      N1131   1.373       .  A
C1130      N1135   1.358       .  A
N1131      C1314   1.369       .  A
C1132      N1313   1.369       .  A
C1132      N1133   1.352       .  A
N1133      C1134   1.349       .  A
C1134      C1237   1.478       .  S
C1134      N1317   1.351       .  A
N1135      C1316   1.351   1_554  A
C1136      C1157   1.483       .  S
C1136      N1319   1.379       .  A
C1136      N1141   1.358       .  A
N1137      C1318   1.379       .  A
C1138      N1139   1.352       .  A
C1140      C1251   1.459       .  S
C1140      N1323   1.344       .  A
N1141      C1322   1.344       .  A
Fe1142     O1158   2.152       .  S
Fe1142     O1148   2.058       .  S
Fe1142     O1155   2.033       .  S
Fe1142     O1147   2.135       .  S
Fe1142     O1153   1.940       .  S
Fe1143     O1146   2.131       .  S
Fe1143     O1150   2.042       .  S
Fe1143     O1154   2.142       .  S
Fe1143     O1159   2.036       .  S
Fe1143     O1153   1.931       .  S
Fe1144     O1162   2.048       .  S
Fe1144     O1149   2.143       .  S
Fe1144     O1156   2.118       .  S
Fe1144     O1145   2.044       .  S
Fe1144     O1153   1.927       .  S
O1145      C1152   1.275       .  A
O1146      C1160   1.275       .  A
O1147      C1152   1.281       .  A
O1148      C1151   1.269       .  A
O1149      C1161   1.283       .  A
O1150      C1163   1.261       .  A
C1151      O1156   1.274       .  A
C1151      C1177   1.473       .  S
O1154      C1157   1.277       .  A
O1155      C1157   1.269       .  A
O1158      C1163   1.279       .  A
O1159      C1161   1.271       .  A
C1160      O1162   1.263       .  A
C1160      C1187   1.474       .  S
C1163      C1183   1.483       .  S
C1164      C1195   1.487       .  S
C1165      C1166   1.399       .  A
C1165      H1170   1.083       .  S
C1166      C1220   1.469       .  S
C1166      C1167   1.399   1_655  A
C1167      H1171   1.083       .  S
C1168      C1209   1.471       .  S
C1169      H1172   1.084       .  S
C1173      N1174   1.359       .  A
C1175      C1206   1.464       .  S
C1175      N1176   1.344   1_545  A
N1176      C1177   1.353       .  A
C1177      N1178   1.371   1_565  A
C1179      N1180   1.363       .  A
N1180      C1181   1.352       .  A
C1181      C1192   1.495       .  S
N1182      C1183   1.357       .  A
C1183      N1184   1.373       .  A
C1185      N1186   1.376       .  A
C1185      N1190   1.359       .  A
N1186      C1187   1.372       .  A
C1187      N1188   1.353       .  A
N1188      C1189   1.345       .  A
C1189      C1223   1.472       .  S
C1189      N1190   1.348       .  A
C1191      C1192   1.405       .  A
C1191      C1196   1.408       .  A
C1191      H1198   1.083       .  S
C1193      C1194   1.389       .  A
C1193      N1200   1.421       .  S
C1194      H1199   1.083       .  S
C1195      C1196   1.418       .  A
C1196      N1197   1.435       .  S
N1197      H1201   1.046       .  S
N1197      H1202   1.043       .  S
N1200      H1203   1.043       .  S
N1200      H1204   1.043       .  S
C1205      C1206   1.404       .  A
C1205      C1210   1.408       .  A
C1205      H1212   1.082       .  S
C1207      C1208   1.395       .  A
C1207      N1214   1.440       .  S
C1208      H1213   1.085       .  S
C1209      C1210   1.416       .  A
C1210      N1211   1.438       .  S
N1211      H1215   1.046       .  S
N1211      H1216   1.044       .  S
N1214      H1217   1.045       .  S
N1214      H1218   1.041       .  S
C1219      C1220   1.395       .  A
C1219      C1224   1.395       .  A
C1219      H1226   1.084       .  S
C1220      C1221   1.415       .  A
C1221      C1222   1.392       .  A
C1221      N1228   1.429       .  S
C1222      C1223   1.398       .  A
C1222      H1227   1.085       .  S
C1223      C1224   1.418       .  A
C1224      N1225   1.430       .  S
N1225      H1229   1.045       .  S
N1225      H1230   1.038       .  S
N1228      H1231   1.046       .  S
N1228      H1232   1.043   1_655  S
C1233      C1234   1.406       .  A
C1233      C1420   1.403       .  A
C1233      H1422   1.083       .  S
C1234      C1235   1.404       .  A
C1235      C1236   1.400       .  A
C1235      N1242   1.427       .  S
C1236      C1237   1.403       .  A
C1236      H1241   1.084       .  S
C1237      C1420   1.411       .  A
C1238      C1415   1.403       .  A
C1238      C1419   1.411       .  A
C1238      N1239   1.436   1_556  S
N1239      H1243   1.045       .  S
N1239      H1244   1.046   1_554  S
H1240      C1415   1.083       .  S
N1242      H1245   1.045       .  S
N1242      H1246   1.044       .  S
C1247      C1252   1.393   1_556  A
C1247      H1254   1.084   1_556  S
C1248      C1249   1.414       .  A
C1249      C1250   1.408       .  A
C1249      N1256   1.432       .  S
C1250      C1251   1.397       .  A
C1250      H1255   1.084       .  S
C1252      N1253   1.432       .  S
N1253      H1257   1.045       .  S
N1253      H1258   1.041       .  S
N1256      H1259   1.041       .  S
N1256      H1260   1.046       .  S
C1261      C1444   1.401       .  A
C1261      C1266   1.385       .  A
C1261      H1268   1.084       .  S
C1262      C1443   1.401       .  A
C1263      C1264   1.410       .  A
C1263      N1270   1.438       .  S
C1264      H1269   1.084       .  S
C1265      C1448   1.414       .  A
C1266      C1447   1.414       .  A
C1266      N1267   1.443   1_556  S
N1267      H1271   1.046       .  S
N1267      H1272   1.042       .  S
N1270      H1273   1.043       .  S
N1270      H1274   1.046       .  S
Fe1275     O1291   2.149       .  S
Fe1275     O1281   2.037       .  S
Fe1275     O1288   2.048   1_556  S
Fe1275     O1280   2.131       .  S
Fe1275     O1286   1.929       .  S
Fe1276     O1279   2.135       .  S
Fe1276     O1283   2.039       .  S
Fe1276     O1287   2.143   1_556  S
Fe1276     O1292   2.062   1_556  S
Fe1276     O1286   1.940       .  S
Fe1277     O1295   2.041       .  S
Fe1277     O1282   2.131       .  S
Fe1277     O1289   2.135       .  S
Fe1277     O1278   2.052   1_556  S
Fe1277     O1286   1.939       .  S
O1278      C1285   1.268       .  A
O1279      C1293   1.281       .  A
O1280      C1285   1.277   1_556  A
O1281      C1284   1.272       .  A
O1282      C1294   1.275   1_556  A
O1283      C1296   1.272       .  A
C1284      O1289   1.281       .  A
C1284      C1367   1.478       .  S
C1285      C1314   1.478       .  S
O1287      C1290   1.276       .  A
O1288      C1290   1.263       .  A
C1290      C1320   1.481       .  S
O1291      C1296   1.284       .  A
O1292      C1294   1.269       .  A
C1293      O1295   1.273       .  A
C1293      C1355   1.479       .  S
C1294      C1308   1.479       .  S
C1296      C1361   1.487       .  S
C1297      C1444   1.476       .  S
C1298      C1299   1.399       .  A
C1298      H1303   1.085       .  S
C1299      C1416   1.483       .  S
C1299      C1300   1.411       .  A
C1300      H1304   1.082       .  S
C1301      C1430   1.485       .  S
C1302      H1305   1.084       .  S
C1306      C1334   1.483       .  S
C1306      N1307   1.379       .  A
C1306      N1311   1.360       .  A
C1308      N1309   1.348   1_554  A
C1312      C1343   1.483       .  S
C1312      N1313   1.373       .  A
C1312      N1317   1.358       .  A
C1314      N1315   1.352   1_554  A
N1315      C1316   1.349       .  A
C1316      C1419   1.478       .  S
C1318      C1339   1.483       .  S
C1318      N1323   1.358       .  A
C1320      N1321   1.352       .  A
C1322      C1433   1.459   1_554  S
Fe1324     O1340   2.152       .  S
Fe1324     O1330   2.058       .  S
Fe1324     O1337   2.033       .  S
Fe1324     O1329   2.135       .  S
Fe1324     O1335   1.940       .  S
Fe1325     O1328   2.131       .  S
Fe1325     O1332   2.042       .  S
Fe1325     O1336   2.142       .  S
Fe1325     O1341   2.036       .  S
Fe1325     O1335   1.931       .  S
Fe1326     O1344   2.048       .  S
Fe1326     O1331   2.143       .  S
Fe1326     O1338   2.118       .  S
Fe1326     O1327   2.044       .  S
Fe1326     O1335   1.927       .  S
O1327      C1334   1.275       .  A
O1328      C1342   1.275       .  A
O1329      C1334   1.281       .  A
O1330      C1333   1.269       .  A
O1331      C1343   1.283       .  A
O1332      C1345   1.261       .  A
C1333      O1338   1.274       .  A
C1333      C1359   1.473       .  S
O1336      C1339   1.277       .  A
O1337      C1339   1.269       .  A
O1340      C1345   1.279       .  A
O1341      C1343   1.271       .  A
C1342      O1344   1.263       .  A
C1342      C1369   1.474       .  S
C1345      C1365   1.483       .  S
C1346      C1377   1.487       .  S
C1347      C1348   1.399       .  A
C1347      H1352   1.083       .  S
C1348      C1402   1.469       .  S
C1348      C1349   1.399   1_655  A
C1349      H1353   1.083       .  S
C1350      C1391   1.471       .  S
C1351      H1354   1.084       .  S
C1355      N1356   1.359       .  A
C1357      C1388   1.464       .  S
C1357      N1358   1.344   1_545  A
N1358      C1359   1.353       .  A
C1359      N1360   1.371   1_565  A
C1361      N1362   1.363       .  A
N1362      C1363   1.352       .  A
C1363      C1374   1.495       .  S
N1364      C1365   1.357       .  A
C1365      N1366   1.373       .  A
C1367      N1368   1.376       .  A
C1367      N1372   1.359       .  A
N1368      C1369   1.372       .  A
C1369      N1370   1.353       .  A
N1370      C1371   1.345       .  A
C1371      C1405   1.472       .  S
C1371      N1372   1.348       .  A
C1373      C1374   1.405       .  A
C1373      C1378   1.408       .  A
C1373      H1380   1.083       .  S
C1375      C1376   1.389       .  A
C1375      N1382   1.421       .  S
C1376      H1381   1.083       .  S
C1377      C1378   1.418       .  A
C1378      N1379   1.435       .  S
N1379      H1383   1.046       .  S
N1379      H1384   1.043       .  S
N1382      H1385   1.043       .  S
N1382      H1386   1.043       .  S
C1387      C1388   1.404       .  A
C1387      C1392   1.408       .  A
C1387      H1394   1.082       .  S
C1389      C1390   1.395       .  A
C1389      N1396   1.440       .  S
C1390      H1395   1.085       .  S
C1391      C1392   1.416       .  A
C1392      N1393   1.438       .  S
N1393      H1397   1.046       .  S
N1393      H1398   1.044       .  S
N1396      H1399   1.045       .  S
N1396      H1400   1.041       .  S
C1401      C1402   1.395       .  A
C1401      C1406   1.395       .  A
C1401      H1408   1.084       .  S
C1402      C1403   1.415       .  A
C1403      C1404   1.392       .  A
C1403      N1410   1.429       .  S
C1404      C1405   1.398       .  A
C1404      H1409   1.085       .  S
C1405      C1406   1.418       .  A
C1406      N1407   1.430       .  S
N1407      H1411   1.045       .  S
N1407      H1412   1.038       .  S
N1410      H1413   1.046       .  S
N1410      H1414   1.043   1_655  S
C1415      C1416   1.406       .  A
C1416      C1417   1.404       .  A
C1417      C1418   1.400       .  A
C1417      N1424   1.427       .  S
C1418      C1419   1.403       .  A
C1418      H1423   1.084       .  S
C1420      N1421   1.436       .  S
N1421      H1425   1.045       .  S
N1421      H1426   1.046       .  S
N1424      H1427   1.045       .  S
N1424      H1428   1.044       .  S
C1429      C1434   1.393       .  A
C1429      H1436   1.084       .  S
C1430      C1431   1.414       .  A
C1431      C1432   1.408       .  A
C1431      N1438   1.432       .  S
C1432      C1433   1.397       .  A
C1432      H1437   1.084       .  S
C1434      N1435   1.432       .  S
N1435      H1439   1.045       .  S
N1435      H1440   1.041       .  S
N1438      H1441   1.041       .  S
N1438      H1442   1.046       .  S
C1443      C1448   1.385       .  A
C1443      H1450   1.084       .  S
C1445      C1446   1.410       .  A
C1445      N1452   1.438       .  S
C1446      H1451   1.084       .  S
C1448      N1449   1.443       .  S
N1449      H1453   1.046       .  S
N1449      H1454   1.042       .  S
N1452      H1455   1.043       .  S
N1452      H1456   1.046       .  S
