geometry optimzed in LAMMPS
_audit_creation_date              2020-12-01 
_audit_creation_method            'lammps2cif' 
_symmetry_space_group_name_H-M    'P1' 
_symmetry_Int_Tables_number       1 
_symmetry_cell_setting            triclinic 
loop_ 
_symmetry_equiv_pos_as_xyz 
  x,y,z 
_cell_length_a                    28.14315031 
_cell_length_b                    28.097469569807956 
_cell_length_c                    43.89253232311113 
_cell_angle_alpha                 90.0065109558682 
_cell_angle_beta                  90.01684820390068 
_cell_angle_gamma                 83.60773011432981 
loop_ 
_atom_site_label 
_atom_site_type_symbol 
_atom_site_fract_x 
_atom_site_fract_y 
_atom_site_fract_z 
_atom_site_charge 
N1          N  0.08782286  0.98482681  0.44367983    -0.05700
N2          N  0.11701954  0.99699566  0.42219973    -0.57900
N3          N  0.03810096  0.88866252  0.46568942    -0.05400
N4          N  0.04079629  0.84236070  0.45983119    -0.60000
N5          N  0.01341725  0.91327672  0.44430989    -0.05000
N6          N  0.99879386  0.88399788  0.42362160    -0.57800
N7          N  0.11213344  0.96010641  0.46515856    -0.04700
N8          N  0.15820896  0.95503222  0.45866747    -0.60300
C9          C  0.16086469  0.97820793  0.43181713     0.96400
C10         C  0.01583247  0.83977126  0.43362148     0.96200
N11         N  0.01678851  0.91829443  0.05972543    -0.05900
N12         N  0.99956370  0.89030472  0.08005108    -0.58400
N13         N  0.11356060  0.96836462  0.03739948    -0.04000
N14         N  0.15979995  0.96951812  0.04234867    -0.59700
N15         N  0.08844360  0.99262430  0.05872205    -0.06000
N16         N  0.11685209  0.01008632  0.07878939    -0.58700
N17         N  0.04115757  0.89271184  0.03872851    -0.03700
N18         N  0.04094726  0.84650450  0.04449404    -0.59800
Mn19       Mn  0.07596804  0.92430648  0.50164291     1.18400
C20         C  0.01456909  0.84554245  0.07035027     0.98500
C21         C  0.16118268  0.99593351  0.06812508     0.99200
N22         N  0.92962781  0.99962080  0.44330647    -0.06000
N23         N  0.89997299  0.98541578  0.42269439    -0.62300
N24         N  0.97994246  0.09651085  0.46480224    -0.04800
N25         N  0.97873567  0.14285328  0.45952064    -0.63000
N26         N  0.00463956  0.07180030  0.44349976    -0.05500
N27         N  0.02065485  0.10112107  0.42327829    -0.62500
N28         N  0.90548662  0.02481852  0.46458622    -0.04400
N29         N  0.85917392  0.02831597  0.45893729    -0.63200
Mn30       Mn  0.00886168  0.99239984  0.44280800     1.10700
C31         C  0.85603478  0.00316847  0.43290886     0.99700
C32         C  0.00452061  0.14549476  0.43366969     0.99800
N33         N  0.00270668  0.07521963  0.05868065    -0.05500
N34         N  0.01597957  0.10526832  0.07935349    -0.60900
N35         N  0.90635323  0.02287218  0.03772479    -0.04800
N36         N  0.86038383  0.02030554  0.04245435    -0.57600
N37         N  0.93206531  0.99966724  0.05915598    -0.06100
N38         N  0.90424041  0.98119640  0.07906740    -0.60400
N39         N  0.97727343  0.09869434  0.03726432    -0.05100
N40         N  0.97293827  0.14502337  0.04279501    -0.57600
Mn41       Mn  0.01017555  0.99658359  0.05989393     1.20200
Mn42       Mn  0.94027930  0.06210341  0.00189059     1.10100
Cl43       Cl  0.00898440  0.99548258  0.00174629    -0.85600
C44         C  0.99745349  0.14883932  0.06900088     0.96700
C45         C  0.85971646  0.99383880  0.06817052     0.96500
C46         C  0.97144666  0.54415528  0.18768124     0.80600
N47         N  0.97216137  0.50277838  0.17161522    -0.77700
C48         C  0.97573889  0.45973859  0.18601702     0.83000
N49         N  0.97796994  0.45832826  0.21693403    -0.77600
C50         C  0.97735338  0.49930315  0.23332562     0.83100
N51         N  0.97467352  0.54212013  0.21859528    -0.79400
C52         C  0.99708797  0.53615304  0.31283162     0.80600
N53         N  0.98931077  0.53761667  0.28231770    -0.77700
C54         C  0.98298285  0.49711883  0.26664952     0.83000
N55         N  0.98419207  0.45458941  0.28175769    -0.77600
C56         C  0.99146198  0.45276911  0.31243589     0.83100
N57         N  0.99802848  0.49363002  0.32754742    -0.79400
C58         C  0.46784447  0.01118802  0.18490283     0.80600
N59         N  0.46683061  0.00848064  0.21588835    -0.77700
C60         C  0.50841639  0.00194398  0.23207539     0.83000
N61         N  0.55092706  0.99798028  0.21708813    -0.77600
C62         C  0.55223136  0.00024828  0.18619093     0.83100
N63         N  0.51060886  0.00680348  0.17035928    -0.79400
C64         C  0.46505164  0.99071528  0.31130091     0.80600
N65         N  0.50656722  0.99068390  0.32710850    -0.77700
C66         C  0.54877845  0.99411101  0.31281454     0.83000
N67         N  0.54904142  0.99759134  0.28184921    -0.77600
C68         C  0.50772402  0.99806769  0.26559413     0.83100
N69         N  0.46584793  0.99483083  0.28045752    -0.79400
C70         C  0.97570930  0.32530414  0.33796971    -0.14000
C71         C  0.00288044  0.32183695  0.36482761     0.16400
C72         C  0.02648055  0.36100949  0.37403937     0.02700
C73         C  0.02214760  0.40293088  0.35660683    -0.12500
C74         C  0.99472083  0.40693538  0.32971869    -0.03500
C75         C  0.97118072  0.36741828  0.32046524     0.01900
C76         C  0.00524016  0.27757572  0.38338824     0.08800
N77         N  0.05589836  0.35828845  0.40066553     0.65100
H78         H  0.04114410  0.43249154  0.36408896     0.18000
N79         N  0.94055126  0.37032647  0.29441000     0.75600
H80         H  0.95687988  0.29537244  0.33093156     0.09600
C81         C  0.97762117  0.27552496  0.40999839     0.03300
C82         C  0.97956728  0.23277747  0.42659537    -0.05500
C83         C  0.00821728  0.19120751  0.41703031    -0.23900
C84         C  0.03706882  0.19394652  0.39081723     0.12500
C85         C  0.03509054  0.23685748  0.37423617    -0.13000
N86         N  0.94564885  0.31588018  0.41956039     0.64200
H87         H  0.95690884  0.23179774  0.44658639     0.12000
N88         N  0.06879459  0.15376151  0.38083483     0.60800
H89         H  0.05706603  0.23841462  0.35396526     0.08200
O90         O  0.89850654  0.39095533  0.29658887    -0.40600
O91         O  0.95262196  0.34590400  0.27098103    -0.39500
O92         O  0.09890712  0.34027569  0.39873656    -0.39800
O93         O  0.04224334  0.38233053  0.42396331    -0.37500
O94         O  0.05862399  0.13088516  0.35742107    -0.38400
O95         O  0.11026549  0.14651531  0.39204243    -0.34600
O96         O  0.90530765  0.32424938  0.40691976    -0.36000
O97         O  0.95380857  0.33732681  0.44394706    -0.40300
C98         C  0.01716762  0.66411763  0.33421559    -0.14000
C99         C  0.01225986  0.66281893  0.36598710     0.16400
C100        C  0.00349232  0.61964073  0.38016933     0.02700
C101        C  0.00019874  0.57882476  0.36239484    -0.12500
C102        C  0.00396436  0.58011275  0.33043451    -0.03500
C103        C  0.01309876  0.62350851  0.31636439     0.01900
C104        C  0.01420387  0.70756884  0.38359528     0.08800
N105        N  0.99505623  0.61732707  0.41229215     0.65100
H106        H  0.99254111  0.54622972  0.37382043     0.18000
N107        N  0.01892011  0.62703143  0.28412524     0.75600
H108        H  0.02412614  0.69722706  0.32310995     0.09600
C109        C  0.04723439  0.71141807  0.40742109     0.03300
C110        C  0.04577024  0.75433074  0.42392216    -0.05500
C111        C  0.01358200  0.79455074  0.41629040    -0.23900
C112        C  0.98119643  0.79048571  0.39197238     0.12500
C113        C  0.98148825  0.74706372  0.37637754    -0.13000
N114        N  0.08386067  0.67315749  0.41403460     0.64200
H115        H  0.07162691  0.75679732  0.44209890     0.12000
N116        N  0.94704283  0.82933570  0.38291068     0.60800
H117        H  0.95587840  0.74423484  0.35807998     0.08200
O118        O  0.05967128  0.61641948  0.27242257    -0.40600
O119        O  0.98559243  0.64800269  0.26819576    -0.39800
O120        O  0.96065139  0.64365309  0.42407790    -0.39800
O121        O  0.01700549  0.58414176  0.42792591    -0.37500
O122        O  0.90356153  0.82240387  0.38150354    -0.38400
O123        O  0.96106225  0.86348114  0.36793405    -0.34600
O124        O  0.11119752  0.65580583  0.39306513    -0.36000
O125        O  0.09309123  0.66117391  0.44130097    -0.40300
C126        C  0.01261553  0.24062494  0.13110830    -0.14000
C127        C  0.98522482  0.28116097  0.11921627     0.16400
C128        C  0.96433034  0.27841725  0.09017019     0.02700
C129        C  0.97075842  0.23555810  0.07385837    -0.12500
C130        C  0.99685857  0.19441953  0.08604982    -0.03500
C131        C  0.01845671  0.19738971  0.11497173     0.01900
C132        C  0.98142123  0.32693420  0.13630778     0.08800
N133        N  0.93498422  0.31837188  0.07746499     0.65100
H134        H  0.95352623  0.23421612  0.05169952     0.18000
N135        N  0.04634494  0.15707696  0.12826833     0.75600
H136        H  0.03026670  0.24270868  0.15310128     0.09600
C137        C  0.96578536  0.32993378  0.16682039     0.03300
C138        C  0.96456047  0.37336487  0.18247294    -0.05500
C139        C  0.97864757  0.41445462  0.16840319    -0.23900
C140        C  0.99514063  0.41115955  0.13788498     0.12500
C141        C  0.99596194  0.36768200  0.12226440    -0.13000
N142        N  0.94997306  0.28947636  0.18193506     0.64200
H143        H  0.95154306  0.37505438  0.20587406     0.12000
N144        N  0.01383493  0.45046030  0.12300743     0.60800
H145        H  0.00988204  0.36522419  0.09906790     0.08200
O146        O  0.02946698  0.13492291  0.15003810    -0.40600
O147        O  0.08998691  0.14822168  0.12144539    -0.39800
O148        O  0.94639927  0.33611713  0.05245468    -0.39800
O149        O  0.89472003  0.33178897  0.08910537    -0.37500
O150        O  0.99891530  0.46333818  0.09683055    -0.38400
O151        O  0.05082725  0.46630229  0.13341282    -0.34600
O152        O  0.97363400  0.27052142  0.20408114    -0.36000
O153        O  0.90900779  0.27745678  0.17625694    -0.40300
C154        C  0.96237734  0.63916731  0.12550333    -0.14000
C155        C  0.98981850  0.67289578  0.13807127     0.16400
C156        C  0.00773671  0.66599764  0.16788946     0.02700
C157        C  0.99941631  0.62494593  0.18418563    -0.12500
C158        C  0.97308834  0.59028338  0.17140734    -0.03500
C159        C  0.95300097  0.59847366  0.14200410     0.01900
C160        C  0.99670868  0.71672081  0.12060521     0.08800
N161        N  0.03613437  0.69949784  0.18135373     0.65100
H162        H  0.01545399  0.61927599  0.20665663     0.18000
N163        N  0.92104451  0.56735392  0.12937405     0.75600
H164        H  0.94673546  0.64543177  0.10295959     0.09600
C165        C  0.02263541  0.71455752  0.09309742     0.03300
C166        C  0.02710905  0.75664220  0.07670246    -0.05500
C167        C  0.00607460  0.80134188  0.08720962    -0.23900
C168        C  0.97898721  0.80304856  0.11451437     0.12500
C169        C  0.97500903  0.76099309  0.13092589    -0.13000
N170        N  0.04585938  0.67002368  0.08213936     0.64200
H171        H  0.04813143  0.75431725  0.05585031     0.12000
N172        N  0.95460673  0.84692040  0.12571658     0.60800
H173        H  0.95393207  0.76279705  0.15177840     0.08200
O174        O  0.88448232  0.55890050  0.14420486    -0.40600
O175        O  0.92492388  0.55476104  0.10179913    -0.39800
O176        O  0.01947109  0.72569521  0.20305159    -0.39800
O177        O  0.07980487  0.69814340  0.17451071    -0.37500
O178        O  0.91403636  0.86214166  0.11514349    -0.38400
O179        O  0.96986455  0.86615172  0.14922468    -0.34600
O180        O  0.03193184  0.65230770  0.05773360    -0.36000
O181        O  0.08354156  0.65125173  0.09491153    -0.40300
C182        C  0.63752121  0.99907453  0.37886505    -0.14000
C183        C  0.68069491  0.00100612  0.36331619     0.16400
C184        C  0.68052818  0.99948732  0.33119721     0.02700
C185        C  0.63761929  0.99648683  0.31539827    -0.12500
C186        C  0.59392536  0.99525657  0.33083284    -0.03500
C187        C  0.59450251  0.99641312  0.36322456     0.01900
C188        C  0.72575863  0.00231024  0.38101725     0.08800
N189        N  0.72346193  0.00266110  0.31430511     0.65100
H190        H  0.63862951  0.99593598  0.29060969     0.18000
N191        N  0.55193149  0.99531149  0.38082314     0.75600
H192        H  0.63720548  0.99909455  0.40367366     0.09600
C193        C  0.73002454  0.03718565  0.40373189     0.03300
C194        C  0.77203276  0.03585345  0.42103907    -0.05500
C195        C  0.81057241  0.00045547  0.41609449    -0.23900
C196        C  0.80572912  0.96472855  0.39407689     0.12500
C197        C  0.76379559  0.96620521  0.37662319    -0.13000
N198        N  0.69266091  0.07519709  0.40873799     0.64200
H199        H  0.77503084  0.06376031  0.43779181     0.12000
N200        N  0.84206507  0.92543690  0.39026813     0.60800
H201        H  0.76023616  0.93792634  0.36021093     0.08200
O202        O  0.53340263  0.03310323  0.39363780    -0.40600
O203        O  0.53885178  0.95551898  0.38856155    -0.39800
O204        O  0.74150116  0.96730682  0.29885263    -0.39800
O205        O  0.73977192  0.04250898  0.31167767    -0.37500
O206        O  0.85537237  0.89928821  0.41277005    -0.38400
O207        O  0.85856483  0.91489801  0.36410170    -0.34600
O208        O  0.67188175  0.07924411  0.43423326    -0.36000
O209        O  0.68494692  0.10820092  0.38927308    -0.40300
C210        C  0.28938854  0.95463563  0.40345857    -0.14000
C211        C  0.28925355  0.98793133  0.37971545     0.16400
C212        C  0.24676057  0.01721778  0.37281508     0.02700
C213        C  0.20537565  0.01301370  0.38983910    -0.12500
C214        C  0.20538272  0.98005145  0.41392304    -0.03500
C215        C  0.24800755  0.94994852  0.42038973     0.01900
C216        C  0.33347763  0.99041419  0.36179590     0.08800
N217        N  0.24570796  0.05250661  0.34930135     0.65100
H218        H  0.17310669  0.03660819  0.38450532     0.18000
N219        N  0.24945520  0.91296305  0.44290952     0.75600
H220        H  0.32185558  0.93098841  0.40835133     0.09600
C221        C  0.37538765  0.00247226  0.37592345     0.03300
C222        C  0.41747677  0.00159227  0.35909666    -0.05500
C223        C  0.41941544  0.98882643  0.32814998    -0.23900
C224        C  0.37733732  0.97590995  0.31409041     0.12500
C225        C  0.33487229  0.97741663  0.33095585    -0.13000
N226        N  0.37511307  0.01685716  0.40716722     0.64200
H227        H  0.44932287  0.01235466  0.37060534     0.12000
N228        N  0.37779409  0.95867859  0.28342116     0.60800
H229        H  0.30276527  0.96661186  0.32007206     0.08200
O230        O  0.22661686  0.87738041  0.43847937    -0.40600
O231        O  0.28045901  0.91106140  0.46377990    -0.39800
O232        O  0.21946293  0.04947488  0.32622718    -0.39800
O233        O  0.26683466  0.08937853  0.35314779    -0.37500
O234        O  0.39752003  0.91717271  0.27744344    -0.38400
O235        O  0.35236601  0.98156722  0.26344419    -0.34600
O236        O  0.39939940  0.99136208  0.42651662    -0.36000
O237        O  0.35478529  0.05738915  0.41481802    -0.40300
C238        C  0.73122727  0.97977070  0.08793937    -0.14000
C239        C  0.73063639  0.99036089  0.11926235     0.16400
C240        C  0.77404978  0.99753735  0.13386185     0.02700
C241        C  0.81625129  0.99526171  0.11695058    -0.12500
C242        C  0.81604422  0.98783436  0.08542910    -0.03500
C243        C  0.77326725  0.97919736  0.07087063     0.01900
C244        C  0.68485611  0.99317151  0.13644760     0.08800
N245        N  0.77535524  0.01027113  0.16537090     0.65100
H246        H  0.84910180  0.00250279  0.12835450     0.18000
N247        N  0.77241750  0.96858784  0.03903256     0.75600
H248        H  0.69856418  0.97201488  0.07652092     0.09600
C249        C  0.64304479  0.02020872  0.12543979     0.03300
C250        C  0.60032529  0.02098614  0.14173543    -0.05500
C251        C  0.59824138  0.99660031  0.16951913    -0.23900
C252        C  0.64004277  0.96962981  0.18059039     0.12500
C253        C  0.68247866  0.96764089  0.16380321    -0.13000
N254        N  0.64380980  0.04853130  0.09838811     0.64200
H255        H  0.56864186  0.04248253  0.13298240     0.12000
N256        N  0.63959578  0.94264965  0.20816308     0.60800
H257        H  0.71392124  0.94526483  0.17213756     0.08200
O258        O  0.75280629  0.99925121  0.02064682    -0.40600
O259        O  0.78526257  0.92652995  0.02990831    -0.39800
O260        O  0.80073809  0.98376668  0.18369179    -0.39800
O261        O  0.75742800  0.05128734  0.17386518    -0.37500
O262        O  0.62660197  0.90110487  0.20759893    -0.38400
O263        O  0.65959738  0.95682777  0.23169904    -0.34600
O264        O  0.61685020  0.04115060  0.07630039    -0.36000
O265        O  0.66706284  0.08442081  0.09794908    -0.40300
C266        C  0.28665113  0.02527962  0.08605462    -0.14000
C267        C  0.29193409  0.00949134  0.11640797     0.16400
C268        C  0.25320735  0.99115075  0.13097162     0.02700
C269        C  0.21026679  0.98867354  0.11519461    -0.12500
C270        C  0.20541687  0.00332760  0.08471725    -0.03500
C271        C  0.24359360  0.02262173  0.07022480     0.01900
C272        C  0.33770636  0.01245298  0.13290752     0.08800
N273        N  0.25801524  0.97246107  0.16124201     0.65100
H274        H  0.18117271  0.97338329  0.12643992     0.18000
N275        N  0.23801072  0.04189328  0.04009632     0.75600
H276        H  0.31577523  0.04055485  0.07484159     0.09600
C277        C  0.38065021  0.98697531  0.12264968     0.03300
C278        C  0.42275484  0.98832857  0.13944959    -0.05500
C279        C  0.42321001  0.01471141  0.16662331    -0.23900
C280        C  0.38077956  0.04225684  0.17610632     0.12500
C281        C  0.33838610  0.04037667  0.15944718    -0.13000
N282        N  0.38140612  0.95746359  0.09610492     0.64200
H283        H  0.45510645  0.96696105  0.13170326     0.12000
N284        N  0.38099296  0.07439331  0.20137541     0.60800
H285        H  0.30578030  0.06150435  0.16700427     0.08200
O286        O  0.26441463  0.02437950  0.01874731    -0.40600
O287        O  0.20693448  0.07690906  0.03485977    -0.39800
O288        O  0.23451358  0.99346390  0.18276752    -0.39800
O289        O  0.28270799  0.93286137  0.16602380    -0.37500
O290        O  0.40312162  0.11094582  0.19928658    -0.38400
O291        O  0.35370153  0.07024500  0.22378628    -0.34600
O292        O  0.40209994  0.96950127  0.07227349    -0.36000
O293        O  0.36712104  0.91653917  0.09774734    -0.40300
N294        N  0.08613232  0.99004462  0.94396743    -0.05700
N295        N  0.11454136  0.00584444  0.92323399    -0.57900
N296        N  0.03997645  0.89150604  0.96620737    -0.05400
N297        N  0.04336611  0.84512357  0.96029559    -0.60000
N298        N  0.01405106  0.91569531  0.94517370    -0.05000
N299        N  0.99924294  0.88610446  0.92474682    -0.57800
N300        N  0.11155326  0.96591387  0.96520867    -0.04700
N301        N  0.15761468  0.96481177  0.95930725    -0.60300
C302        C  0.15909025  0.98985918  0.93307977     0.96400
C303        C  0.01744530  0.84208915  0.93447588     0.96200
N304        N  0.01324196  0.91549018  0.55881709    -0.05900
N305        N  0.99565060  0.88755353  0.57906719    -0.58400
N306        N  0.11202155  0.96262235  0.53752428    -0.04000
N307        N  0.15830241  0.96188894  0.54291042    -0.59700
N308        N  0.08723355  0.98790712  0.55853702    -0.06000
N309        N  0.11608982  0.00465877  0.57864878    -0.58700
N310        N  0.03759269  0.88973511  0.53789076    -0.03700
N311        N  0.03700058  0.84360502  0.54355869    -0.59800
Mn312      Mn  0.07772738  0.92844953  0.00191103     1.18400
C313        C  0.01048445  0.84272325  0.56931013     0.98500
C314        C  0.16040184  0.98861056  0.56849418     0.99200
N315        N  0.92804597  0.00007211  0.94501383    -0.06000
N316        N  0.89795596  0.98533294  0.92484966    -0.62300
N317        N  0.97653971  0.09856021  0.96580136    -0.04800
N318        N  0.97466321  0.14501807  0.96079936    -0.63000
N319        N  0.00105152  0.07442426  0.94420736    -0.05500
N320        N  0.01630295  0.10426029  0.92402928    -0.62500
N321        N  0.90422728  0.02488154  0.96658071    -0.04400
N322        N  0.85779307  0.02760712  0.96163764    -0.63200
Mn323      Mn  0.00729205  0.99494471  0.94361573     1.10700
C324        C  0.85417613  0.00239078  0.93572722     0.99700
C325        C  0.99984269  0.14833586  0.93477381     0.99800
N326        N  0.00317248  0.07247893  0.55806183    -0.05500
N327        N  0.01688781  0.10184852  0.57900363    -0.60900
N328        N  0.90529710  0.02310145  0.53617882    -0.04800
N329        N  0.85896086  0.02278359  0.54097514    -0.57600
N330        N  0.93003905  0.99929577  0.55782010    -0.06100
N331        N  0.90116201  0.98271498  0.57790853    -0.60400
N332        N  0.97869780  0.09675786  0.53654438    -0.05100
N333        N  0.97546553  0.14302625  0.54233319    -0.57600
Mn334      Mn  0.00855711  0.99389486  0.55913139     1.20200
Mn335      Mn  0.94151538  0.06116500  0.50054821     1.10100
Cl336      Cl  0.00883643  0.99295924  0.50096404    -0.85600
C337        C  0.99971477  0.14589626  0.56876662     0.96700
C338        C  0.85698917  0.99707087  0.56694731     0.96500
C339        C  0.97502185  0.54013705  0.68744338     0.80600
N340        N  0.97739884  0.49794918  0.67215457    -0.77700
C341        C  0.98147204  0.45556341  0.68733627     0.83000
N342        N  0.98237113  0.45568898  0.71832661    -0.77600
C343        C  0.98013913  0.49763687  0.73395447     0.83100
N344        N  0.97704594  0.53970043  0.71839863    -0.79400
C345        C  0.99626212  0.53865851  0.81321528     0.80600
N346        N  0.99025705  0.53867702  0.78248322    -0.77700
C347        C  0.98405121  0.49746330  0.76742688     0.83000
N348        N  0.98358789  0.45588989  0.78333705    -0.77600
C349        C  0.98906925  0.45556840  0.81413735     0.83100
N350        N  0.99561064  0.49691865  0.82864252    -0.79400
C351        C  0.46657497  0.00688557  0.68731486     0.80600
N352        N  0.46607353  0.00786353  0.71826645    -0.77700
C353        C  0.50780721  0.00446222  0.73424444     0.83000
N354        N  0.55020039  0.00037102  0.71899226    -0.77600
C355        C  0.55096093  0.99946665  0.68797230     0.83100
N356        N  0.50901663  0.00245690  0.67241062    -0.79400
C357        C  0.46214378  0.00609616  0.81347276     0.80600
N358        N  0.50355716  0.00352726  0.82952554    -0.77700
C359        C  0.54665489  0.00095116  0.81544689     0.83000
N360        N  0.54796302  0.00132916  0.78437762    -0.77600
C361        C  0.50671789  0.00425771  0.76786737     0.83100
N362        N  0.46401302  0.00669141  0.78256997    -0.79400
C363        C  0.96916984  0.33024430  0.84129384    -0.14000
C364        C  0.99693035  0.32643085  0.86789143     0.16400
C365        C  0.02170877  0.36502137  0.87670215     0.02700
C366        C  0.01834650  0.40655843  0.85892157    -0.12500
C367        C  0.99070206  0.41065686  0.83214501    -0.03500
C368        C  0.96554462  0.37198209  0.82350613     0.01900
C369        C  0.99970026  0.28184235  0.88608054     0.08800
N370        N  0.05157977  0.36194451  0.90312003     0.65100
H371        H  0.03838552  0.43562639  0.86594577     0.18000
N372        N  0.93429050  0.37546401  0.79775553     0.75600
H373        H  0.94943615  0.30077983  0.83458369     0.09600
C374        C  0.97371325  0.27939926  0.91333159     0.03300
C375        C  0.97600080  0.23611985  0.92939089    -0.05500
C376        C  0.00327059  0.19447413  0.91860963    -0.23900
C377        C  0.03048000  0.19762220  0.89172313     0.12500
C378        C  0.02821420  0.24103083  0.87572304    -0.13000
N379        N  0.94293145  0.31985405  0.92407842     0.64200
H380        H  0.95460742  0.23480448  0.94992665     0.12000
N381        N  0.06064832  0.15728975  0.88036102     0.60800
H382        H  0.04887188  0.24289397  0.85490667     0.08200
O383        O  0.89249207  0.39652846  0.80039707    -0.40600
O384        O  0.94551596  0.35113355  0.77415849    -0.39500
O385        O  0.09493997  0.34534186  0.90062832    -0.39800
O386        O  0.03778301  0.38483746  0.92682842    -0.37500
O387        O  0.04881523  0.13631101  0.85657222    -0.38400
O388        O  0.10245963  0.14814109  0.89078462    -0.34600
O389        O  0.90315980  0.33108942  0.91120966    -0.36000
O390        O  0.95134002  0.33859006  0.94936462    -0.40300
C391        C  0.01658351  0.66729778  0.83379781    -0.14000
C392        C  0.01320439  0.66603166  0.86567266     0.16400
C393        C  0.00505076  0.62289442  0.88006995     0.02700
C394        C  0.00082917  0.58207801  0.86248304    -0.12500
C395        C  0.00330567  0.58312787  0.83043292    -0.03500
C396        C  0.01181406  0.62654635  0.81610244     0.01900
C397        C  0.01567552  0.71071733  0.88333199     0.08800
N398        N  0.99820258  0.62063075  0.91234023     0.65100
H399        H  0.99375884  0.54957335  0.87423650     0.18000
N400        N  0.01630937  0.62995199  0.78376897     0.75600
H401        H  0.02288558  0.70045445  0.82250636     0.09600
C402        C  0.05063841  0.71502289  0.90593009     0.03300
C403        C  0.04937755  0.75752698  0.92292007    -0.05500
C404        C  0.01511980  0.79687499  0.91704731    -0.23900
C405        C  0.98051686  0.79219322  0.89412339     0.12500
C406        C  0.98097097  0.74928387  0.87791035    -0.13000
N407        N  0.08885969  0.67765250  0.91076564     0.64200
H408        H  0.07682580  0.76044211  0.94003871     0.12000
N409        N  0.94350449  0.82968272  0.88745704     0.60800
H410        H  0.95365664  0.74601534  0.86073222     0.08200
O411        O  0.05700622  0.62180088  0.77158416    -0.40600
O412        O  0.98149689  0.64881790  0.76819258    -0.39800
O413        O  0.96302669  0.64528255  0.92451620    -0.39800
O414        O  0.02230477  0.58858032  0.92776324    -0.37500
O415        O  0.90065373  0.82065165  0.88908388    -0.38400
O416        O  0.95326286  0.86471212  0.87154064    -0.34600
O417        O  0.11532278  0.66272078  0.88877148    -0.36000
O418        O  0.10030578  0.66431133  0.93749127    -0.40300
C419        C  0.01893189  0.23589438  0.63136718    -0.14000
C420        C  0.99032274  0.27659747  0.62077286     0.16400
C421        C  0.96705306  0.27460522  0.59245107     0.02700
C422        C  0.97229574  0.23227933  0.57551470    -0.12500
C423        C  0.99997329  0.19102673  0.58629313    -0.03500
C424        C  0.02413264  0.19332750  0.61443716     0.01900
C425        C  0.98792357  0.32202445  0.63818731     0.08800
N426        N  0.93666083  0.31489758  0.58111527     0.65100
H427        H  0.95310950  0.23146783  0.55401739     0.18000
N428        N  0.05476360  0.15328800  0.62583094     0.75600
H429        H  0.03833728  0.23750682  0.65275190     0.09600
C430        C  0.97220596  0.32514283  0.66866856     0.03300
C431        C  0.97119770  0.36862632  0.68436372    -0.05500
C432        C  0.98574694  0.40955998  0.67031084    -0.23900
C433        C  0.00309745  0.40581515  0.63996955     0.12500
C434        C  0.00338801  0.36242054  0.62428847    -0.13000
N435        N  0.95567555  0.28487414  0.68357415     0.64200
H436        H  0.95771737  0.37059059  0.70764306     0.12000
N437        N  0.02300390  0.44463981  0.62531948     0.60800
H438        H  0.01737768  0.35974149  0.60112513     0.08200
O439        O  0.04246436  0.13096559  0.64895698    -0.40600
O440        O  0.09677501  0.14475784  0.61563884    -0.39800
O441        O  0.94704263  0.33471386  0.55657050    -0.39800
O442        O  0.89656510  0.32667248  0.59343284    -0.37500
O443        O  0.01005424  0.45688215  0.59864913    -0.38400
O444        O  0.05909237  0.46087368  0.63673848    -0.34600
O445        O  0.97972401  0.26443241  0.70508158    -0.36000
O446        O  0.91417296  0.27404990  0.67816946    -0.40300
C447        C  0.96359451  0.63332277  0.62411609    -0.14000
C448        C  0.98961682  0.66848854  0.63639637     0.16400
C449        C  0.00792776  0.66257304  0.66622481     0.02700
C450        C  0.00077912  0.62157929  0.68289620    -0.12500
C451        C  0.97579019  0.58567015  0.67043228    -0.03500
C452        C  0.95596276  0.59232962  0.64085745     0.01900
C453        C  0.99457605  0.71269073  0.61872768     0.08800
N454        N  0.03567552  0.69697286  0.67933048     0.65100
H455        H  0.01678576  0.61694743  0.70545033     0.18000
N456        N  0.92605092  0.55923171  0.62822225     0.75600
H457        H  0.94763939  0.63860348  0.60157837     0.09600
C458        C  0.01608067  0.71105939  0.58968254     0.03300
C459        C  0.01978318  0.75363345  0.57368863    -0.05500
C460        C  0.00233662  0.79833777  0.58602639    -0.23900
C461        C  0.97935459  0.79961865  0.61477574     0.12500
C462        C  0.97592798  0.75705074  0.63072914    -0.13000
N463        N  0.03576016  0.66656275  0.57665479     0.64200
H464        H  0.03745636  0.75161240  0.55159514     0.12000
N465        N  0.95936976  0.84368475  0.62821024     0.60800
H466        H  0.95801643  0.75864044  0.65276575     0.08200
O467        O  0.88961510  0.54947194  0.64270120    -0.40600
O468        O  0.93154529  0.54578478  0.60088402    -0.39800
O469        O  0.01970156  0.72149177  0.70193533    -0.39800
O470        O  0.07869373  0.69756870  0.67139491    -0.37500
O471        O  0.91686778  0.86010226  0.62209361    -0.38400
O472        O  0.98103799  0.86169384  0.64977697    -0.34600
O473        O  0.01694276  0.65075909  0.55316718    -0.36000
O474        O  0.07545624  0.64658295  0.58601133    -0.40300
C475        C  0.63453744  0.00140769  0.88222547    -0.14000
C476        C  0.67827880  0.00093931  0.86700894     0.16400
C477        C  0.67883312  0.99820786  0.83492375     0.02700
C478        C  0.63595709  0.99731012  0.81877556    -0.12500
C479        C  0.59167540  0.99897910  0.83384704    -0.03500
C480        C  0.59158903  0.00029265  0.86626178     0.01900
C481        C  0.72307740  0.00138027  0.88501882     0.08800
N482        N  0.72259008  0.99785055  0.81837997     0.65100
H483        H  0.63751342  0.99614972  0.79401263     0.18000
N484        N  0.54856596  0.00010808  0.88357060     0.75600
H485        H  0.63373532  0.00185167  0.90702380     0.09600
C486        C  0.72818866  0.03708320  0.90704711     0.03300
C487        C  0.77040158  0.03571792  0.92411277    -0.05500
C488        C  0.80828556  0.99946784  0.91955407    -0.23900
C489        C  0.80241828  0.96275287  0.89845518     0.12500
C490        C  0.76022979  0.96418992  0.88129161    -0.13000
N491        N  0.69162810  0.07605185  0.91145225     0.64200
H492        H  0.77417415  0.06432171  0.94024252     0.12000
N493        N  0.83806588  0.92273166  0.89520304     0.60800
H494        H  0.75587014  0.93525053  0.86551943     0.08200
O495        O  0.53350257  0.03643642  0.89914960    -0.40600
O496        O  0.53146973  0.96106065  0.88814218    -0.39800
O497        O  0.73962723  0.96043114  0.80453435    -0.39800
O498        O  0.74076409  0.03643101  0.81433780    -0.37500
O499        O  0.85246087  0.89855850  0.91832750    -0.38400
O500        O  0.85219839  0.90911784  0.86901641    -0.34600
O501        O  0.66964211  0.08056002  0.93652261    -0.36000
O502        O  0.68619161  0.10946235  0.89212992    -0.40300
C503        C  0.28872135  0.97797776  0.90662263    -0.14000
C504        C  0.28636807  0.01070712  0.88246031     0.16400
C505        C  0.24216406  0.03672962  0.87514379     0.02700
C506        C  0.20130632  0.02954830  0.89197000    -0.12500
C507        C  0.20347308  0.99660958  0.91615980    -0.03500
C508        C  0.24799365  0.97049036  0.92339356     0.01900
C509        C  0.32983294  0.01449801  0.86398558     0.08800
N510        N  0.23854638  0.07115084  0.85106749     0.65100
H511        H  0.16752568  0.05025796  0.88607685     0.18000
N512        N  0.25214882  0.93452361  0.94657254     0.75600
H513        H  0.32248330  0.95666584  0.91190893     0.09600
C514        C  0.37213026  0.02675256  0.87758148     0.03300
C515        C  0.41419579  0.02415647  0.86057229    -0.05500
C516        C  0.41578246  0.00911805  0.83003324    -0.23900
C517        C  0.37305583  0.99720530  0.81631555     0.12500
C518        C  0.33068622  0.00052075  0.83333147    -0.13000
N519        N  0.37260248  0.04191104  0.90865419     0.64200
H520        H  0.44652637  0.03440839  0.87171920     0.12000
N521        N  0.37277271  0.97852977  0.78601699     0.60800
H522        H  0.29833265  0.98949905  0.82284537     0.08200
O523        O  0.24045996  0.89341249  0.94072621    -0.40600
O524        O  0.27523441  0.94097530  0.97059048    -0.39800
O525        O  0.21777596  0.06232205  0.82656177    -0.39800
O526        O  0.24939961  0.11283665  0.85601361    -0.37500
O527        O  0.39110844  0.93624848  0.78083334    -0.38400
O528        O  0.34761347  0.00102721  0.76575525    -0.34600
O529        O  0.39453147  0.01516669  0.92839034    -0.36000
O530        O  0.35709931  0.08442060  0.91551570    -0.40300
C531        C  0.72819697  0.98363576  0.58764087    -0.14000
C532        C  0.72759073  0.99544853  0.61881993     0.16400
C533        C  0.77084510  0.00481968  0.63284239     0.02700
C534        C  0.81288845  0.00260464  0.61569017    -0.12500
C535        C  0.81278012  0.99323389  0.58437048    -0.03500
C536        C  0.77002233  0.98331991  0.57026472     0.01900
C537        C  0.68219218  0.99672252  0.63657341     0.08800
N538        N  0.77214966  0.01932863  0.66403152     0.65100
H539        H  0.84564566  0.01096820  0.62674620     0.18000
N540        N  0.76907518  0.97119850  0.53866027     0.75600
H541        H  0.69578627  0.97434558  0.57659035     0.09600
C542        C  0.63887376  0.02091515  0.62553844     0.03300
C543        C  0.59677909  0.02024711  0.64239901    -0.05500
C544        C  0.59656425  0.99712953  0.67074652    -0.23900
C545        C  0.63976514  0.97289609  0.68183303     0.12500
C546        C  0.68170462  0.97240758  0.66455466    -0.13000
N547        N  0.63734483  0.04789191  0.59784483     0.64200
H548        H  0.56397271  0.03967619  0.63358285     0.12000
N549        N  0.64123579  0.94694842  0.70987968     0.60800
H550        H  0.71427161  0.95200329  0.67298022     0.08200
O551        O  0.75061384  0.00150797  0.51966013    -0.40600
O552        O  0.78003051  0.92833858  0.53045443    -0.39800
O553        O  0.79884515  0.99481468  0.68267330    -0.39800
O554        O  0.75255907  0.06009711  0.67181607    -0.37500
O555        O  0.62828779  0.90538395  0.71047877    -0.38400
O556        O  0.66230786  0.96225110  0.73265602    -0.34600
O557        O  0.61055094  0.03762894  0.57630922    -0.36000
O558        O  0.65775532  0.08560495  0.59641172    -0.40300
C559        C  0.29181206  0.99387065  0.58766213    -0.14000
C560        C  0.29026823  0.99872025  0.61955669     0.16400
C561        C  0.24517535  0.00316642  0.63412742     0.02700
C562        C  0.20332835  0.00223270  0.61685078    -0.12500
C563        C  0.20516539  0.99526898  0.58516690    -0.03500
C564        C  0.25005124  0.99167249  0.57045846     0.01900
C565        C  0.33570898  0.00062222  0.63706344     0.08800
N566        N  0.24137418  0.00604574  0.66659740     0.65100
H567        H  0.16922603  0.00453216  0.62860498     0.18000
N568        N  0.25383305  0.98671415  0.53805111     0.75600
H569        H  0.32579446  0.99249691  0.57583880     0.09600
C570        C  0.37634715  0.96720171  0.63179158     0.03300
C571        C  0.41883357  0.97106890  0.64774449    -0.05500
C572        C  0.42172850  0.00665570  0.66979338    -0.23900
C573        C  0.38161033  0.04032549  0.67502702     0.12500
C574        C  0.33935548  0.03736591  0.65847749    -0.13000
N575        N  0.37446896  0.92786338  0.61131509     0.64200
H576        H  0.44950898  0.94461998  0.64369637     0.12000
N577        N  0.38420714  0.07914228  0.69579274     0.60800
H578        H  0.30932980  0.06472456  0.66202070     0.08200
O579        O  0.28151693  0.95295848  0.52665657    -0.40600
O580        O  0.23255769  0.01816568  0.52081614    -0.39800
O581        O  0.21739996  0.04159300  0.67886752    -0.39800
O582        O  0.25727641  0.97069027  0.68278235    -0.37500
O583        O  0.40443337  0.11498886  0.68770044    -0.38400
O584        O  0.36046550  0.08081699  0.72021865    -0.34600
O585        O  0.40248925  0.92308320  0.58880245    -0.36000
O586        O  0.35012115  0.89434282  0.61821072    -0.40300
loop_ 
_geom_bond_atom_site_label_1 
_geom_bond_atom_site_label_2 
_geom_bond_distance 
_geom_bond_site_symmetry_2 
_ccdc_geom_bond_type 
N1            N2   1.321       .  A
N1            N7   1.317       .  A
N1          Mn30   2.209       .  S
N2            C9   1.354       .  A
N3            N5   1.317       .  A
N3            N4   1.320       .  A
N3          Mn19   2.206       .  S
N4           C10   1.354       .  A
N5            N6   1.321   1_455  A
N5          Mn30   2.214       .  S
N6           C10   1.354   1_655  A
N7            N8   1.320       .  A
N7          Mn19   2.200       .  S
N8            C9   1.353       .  A
C9          C214   1.485       .  S
C10         C111   1.488       .  S
N11          N17   1.314       .  A
N11          N12   1.317   1_455  A
N11         Mn41   2.187       .  S
N12          C20   1.350   1_655  A
N13          N14   1.323       .  A
N13          N15   1.316       .  A
N13        Mn312   2.225       .  S
N14          C21   1.356       .  A
N15          N16   1.320   1_565  A
N15         Mn41   2.194       .  S
N16          C21   1.350   1_545  A
N17          N18   1.323       .  A
N17        Mn312   2.216       .  S
N18          C20   1.358       .  A
Mn19        N306   2.216       .  S
Mn19        N310   2.208       .  S
Mn19       Cl336   2.546       .  S
C20         C167   1.488       .  S
C21         C270   1.477   1_565  S
N22          N23   1.322       .  A
N22          N28   1.315   1_565  A
N22         Mn30   2.217   1_655  S
N23          C31   1.357   1_565  A
N24          N26   1.316   1_655  A
N24          N25   1.319       .  A
N24        Mn335   2.204       .  S
N25          C32   1.354   1_655  A
N26          N27   1.324       .  A
N26         Mn30   2.221   1_545  S
N27          C32   1.357       .  A
N28          N29   1.320       .  A
N28        Mn335   2.189       .  S
N29          C31   1.351       .  A
Mn30       Cl336   2.553       .  S
C31         C195   1.486       .  S
C32          C83   1.491       .  S
N33          N34   1.321       .  A
N33          N39   1.314   1_455  A
N33         Mn41   2.197   1_545  S
N34          C44   1.355   1_455  A
N35          N36   1.320       .  A
N35          N37   1.315   1_545  A
N35         Mn42   2.199       .  S
N36          C45   1.353   1_545  A
N37          N38   1.318       .  A
N37         Mn41   2.191   1_655  S
N38          C45   1.351       .  A
N39          N40   1.316       .  A
N39         Mn42   2.188       .  S
N40          C44   1.351       .  A
Mn41        Cl43   2.553       .  S
Mn42        N317   2.199   1_554  S
Mn42        N321   2.182   1_554  S
Mn42        Cl43   2.537   1_645  S
Cl43       Mn312   2.545       .  S
Cl43       Mn323   2.552   1_554  S
C44         C130   1.482       .  S
C45         C242   1.470       .  S
C46          N47   1.358       .  A
C46          N51   1.361       .  A
C46         C158   1.485       .  S
N47          C48   1.358       .  A
C48          N49   1.359       .  A
C48         C139   1.483       .  S
N49          C50   1.356       .  A
C50          N51   1.361       .  A
C50          C54   1.472       .  S
C52          N53   1.357       .  A
C52          N57   1.356       .  A
C52         C102   1.488   1_655  S
N53          C54   1.358       .  A
C54          N55   1.364       .  A
N55          C56   1.362       .  A
C56          N57   1.356       .  A
C56          C74   1.489       .  S
C58          N59   1.363       .  A
C58          N63   1.356       .  A
C58         C279   1.484       .  S
N59          C60   1.364       .  A
C60          N61   1.359   1_545  A
C60          C68   1.476   1_545  S
N61          C62   1.358   1_565  A
C62          N63   1.357       .  A
C62         C251   1.481   1_545  S
C64          N65   1.359       .  A
C64          N69   1.359       .  A
C64         C223   1.488       .  S
N65          C66   1.356       .  A
C66          N67   1.363       .  A
C66         C186   1.500       .  S
N67          C68   1.363       .  A
C68          N69   1.359       .  A
C70          C71   1.402   1_655  A
C70          C75   1.405       .  A
C70          H80   1.087       .  S
C71          C76   1.482       .  S
C71          C72   1.407       .  A
C72          C73   1.399       .  A
C72          N77   1.429       .  S
C73          C74   1.408   1_455  A
C73          H78   1.087       .  S
C74          C75   1.414       .  A
C75          N79   1.429       .  S
C76          C81   1.408   1_455  A
C76          C85   1.401       .  A
N77          O92   1.262       .  A
N77          O93   1.262       .  A
N79          O90   1.262       .  A
N79          O91   1.262       .  A
C81          C82   1.401       .  A
C81          N86   1.430       .  S
C82          C83   1.407   1_655  A
C82          H87   1.087       .  S
C83          C84   1.415       .  A
C84          C85   1.404       .  A
C84          N88   1.428       .  S
C85          H89   1.087       .  S
N86          O96   1.262       .  A
N86          O97   1.262       .  A
N88          O94   1.262       .  A
N88          O95   1.262       .  A
C98          C99   1.402       .  A
C98         C103   1.399       .  A
C98         H108   1.087       .  S
C99         C104   1.482       .  S
C99         C100   1.410       .  A
C100        C101   1.399       .  A
C100        N105   1.433   1_455  S
C101        C102   1.408       .  A
C101        H106   1.087   1_455  S
C102        C103   1.416       .  A
C103        N107   1.429       .  S
C104        C109   1.411       .  A
C104        C113   1.397   1_455  A
N105        O120   1.262       .  A
N105        O121   1.262   1_655  A
N107        O118   1.262       .  A
N107        O119   1.262   1_455  A
C109        C110   1.403       .  A
C109        N114   1.434       .  S
C110        C111   1.408       .  A
C110        H115   1.087       .  S
C111        C112   1.416   1_455  A
C112        C113   1.398       .  A
C112        N116   1.428       .  S
C113        H117   1.088       .  S
N114        O124   1.262       .  A
N114        O125   1.262       .  A
N116        O122   1.262       .  A
N116        O123   1.262       .  A
C126        C127   1.403   1_455  A
C126        C131   1.400       .  A
C126        H136   1.090       .  S
C127        C132   1.482       .  S
C127        C128   1.410       .  A
C128        C129   1.395       .  A
C128        N133   1.431       .  S
C129        C130   1.405       .  A
C129        H134   1.089       .  S
C130        C131   1.414   1_655  A
C131        N135   1.429       .  S
C132        C137   1.409       .  A
C132        C141   1.401       .  A
N133        O148   1.262       .  A
N133        O149   1.262       .  A
N135        O146   1.262       .  A
N135        O147   1.262       .  A
C137        C138   1.397       .  A
C137        N142   1.429       .  S
C138        C139   1.405       .  A
C138        H143   1.090       .  S
C139        C140   1.417       .  A
C140        C141   1.399       .  A
C140        N144   1.433   1_655  S
C141        H145   1.090   1_655  S
N142        O152   1.262       .  A
N142        O153   1.262       .  A
N144        O150   1.262   1_455  A
N144        O151   1.262       .  A
C154        C155   1.401       .  A
C154        C159   1.403       .  A
C154        H164   1.089       .  S
C155        C160   1.482       .  S
C155        C156   1.408   1_655  A
C156        C157   1.399   1_455  A
C156        N161   1.429       .  S
C157        C158   1.404       .  A
C157        H162   1.089   1_655  S
C158        C159   1.417       .  A
C159        N163   1.434       .  S
C160        C165   1.409   1_655  A
C160        C169   1.399       .  A
N161        O176   1.262       .  A
N161        O177   1.262       .  A
N163        O174   1.262       .  A
N163        O175   1.262       .  A
C165        C166   1.402       .  A
C165        N170   1.429       .  S
C166        C167   1.405       .  A
C166        H171   1.088       .  S
C167        C168   1.419   1_455  A
C168        C169   1.399       .  A
C168        N172   1.430       .  S
C169        H173   1.089       .  S
N170        O180   1.262       .  A
N170        O181   1.262       .  A
N172        O178   1.262       .  A
N172        O179   1.262       .  A
C182        C183   1.400   1_565  A
C182        C187   1.401       .  A
C182        H192   1.089       .  S
C183        C188   1.491       .  S
C183        C184   1.410   1_545  A
C184        C185   1.403       .  A
C184        N189   1.429   1_565  S
C185        C186   1.408       .  A
C185        H190   1.088       .  S
C186        C187   1.422       .  A
C187        N191   1.429       .  S
C188        C193   1.412       .  A
C188        C197   1.404   1_545  A
N189        O204   1.262   1_545  A
N189        O205   1.262       .  A
N191        O202   1.262   1_565  A
N191        O203   1.262       .  A
C193        C194   1.402       .  A
C193        N198   1.430       .  S
C194        C195   1.404       .  A
C194        H199   1.085       .  S
C195        C196   1.411   1_545  A
C196        C197   1.404       .  A
C196        N200   1.429       .  S
C197        H201   1.085       .  S
N198        O208   1.262       .  A
N198        O209   1.262       .  A
N200        O206   1.263       .  A
N200        O207   1.262       .  A
C210        C211   1.400       .  A
C210        C215   1.400       .  A
C210        H220   1.090       .  S
C211        C216   1.481       .  S
C211        C212   1.407   1_565  A
C212        C213   1.400       .  A
C212        N217   1.429       .  S
C213        C214   1.405   1_545  A
C213        H218   1.089       .  S
C214        C215   1.417       .  A
C215        N219   1.432       .  S
C216        C221   1.407   1_565  A
C216        C225   1.401       .  A
N217        O232   1.262       .  A
N217        O233   1.262       .  A
N219        O230   1.262       .  A
N219        O231   1.262       .  A
C221        C222   1.394       .  A
C221        N226   1.429       .  S
C222        C223   1.404   1_545  A
C222        H227   1.100       .  S
C223        C224   1.418       .  A
C224        C225   1.403       .  A
C224        N228   1.430       .  S
C225        H229   1.094       .  S
N226        O236   1.262   1_545  A
N226        O237   1.262       .  A
N228        O234   1.262       .  A
N228        O235   1.262       .  A
C238        C239   1.406       .  A
C238        C243   1.399       .  A
C238        H248   1.090       .  S
C239        C244   1.488       .  S
C239        C240   1.414       .  A
C240        C241   1.396       .  A
C240        N245   1.430   1_565  S
C241        C242   1.399       .  A
C241        H246   1.090   1_565  S
C242        C243   1.408       .  A
C243        N247   1.430       .  S
C244        C249   1.413   1_565  A
C244        C253   1.404       .  A
N245        O260   1.262   1_545  A
N245        O261   1.262       .  A
N247        O258   1.262       .  A
N247        O259   1.262       .  A
C249        C250   1.397       .  A
C249        N254   1.431       .  S
C250        C251   1.403   1_545  A
C250        H255   1.090       .  S
C251        C252   1.413       .  A
C252        C253   1.399       .  A
C252        N256   1.429       .  S
C253        H257   1.090       .  S
N254        O264   1.262       .  A
N254        O265   1.262       .  A
N256        O262   1.262       .  A
N256        O263   1.262       .  A
C266        C267   1.407       .  A
C266        C271   1.406       .  A
C266        H276   1.085       .  S
C267        C272   1.488       .  S
C267        C268   1.410   1_545  A
C268        C269   1.401       .  A
C268        N273   1.430       .  S
C269        C270   1.402   1_565  A
C269        H274   1.085       .  S
C270        C271   1.408       .  A
C271        N275   1.431       .  S
C272        C277   1.408   1_545  A
C272        C281   1.406       .  A
N273        O288   1.262       .  A
N273        O289   1.262       .  A
N275        O286   1.261       .  A
N275        O287   1.263       .  A
C277        C278   1.400       .  A
C277        N282   1.429       .  S
C278        C279   1.405   1_565  A
C278        H283   1.088       .  S
C279        C280   1.412       .  A
C280        C281   1.405       .  A
C280        N284   1.431       .  S
C281        H285   1.088       .  S
N282        O292   1.262       .  A
N282        O293   1.262       .  A
N284        O290   1.262       .  A
N284        O291   1.262       .  A
N294        N295   1.321   1_565  A
N294        N300   1.316       .  A
N294       Mn323   2.208       .  S
N295        C302   1.355   1_545  A
N296        N298   1.318       .  A
N296        N297   1.322       .  A
N296       Mn312   2.215   1_556  S
N297        C303   1.355       .  A
N298        N299   1.321   1_455  A
N298       Mn323   2.215       .  S
N299        C303   1.354   1_655  A
N300        N301   1.319       .  A
N300       Mn312   2.199   1_556  S
N301        C302   1.352       .  A
C302        C507   1.484       .  S
C303        C404   1.491       .  S
N304        N310   1.314       .  A
N304        N305   1.318   1_455  A
N304       Mn334   2.192       .  S
N305        C313   1.352   1_655  A
N306        N307   1.322       .  A
N306        N308   1.316       .  A
N307        C314   1.356       .  A
N308        N309   1.321   1_565  A
N308       Mn334   2.202       .  S
N309        C314   1.354   1_545  A
N310        N311   1.322       .  A
N311        C313   1.356       .  A
C313        C460   1.487       .  S
C314        C563   1.486       .  S
N315        N316   1.323   1_545  A
N315        N321   1.314       .  A
N315       Mn323   2.220   1_645  S
N316        C324   1.358   1_565  A
N317        N319   1.315   1_655  A
N317        N318   1.319       .  A
N318        C325   1.353       .  A
N319        N320   1.324       .  A
N319       Mn323   2.221   1_545  S
N320        C325   1.358   1_455  A
N321        N322   1.318       .  A
N322        C324   1.350       .  A
C324        C488   1.484   1_545  S
C325        C376   1.490   1_655  S
N326        N327   1.321       .  A
N326        N332   1.314   1_455  A
N326       Mn334   2.197   1_545  S
N327        C337   1.354   1_455  A
N328        N329   1.322       .  A
N328        N330   1.316   1_545  A
N328       Mn335   2.207       .  S
N329        C338   1.354   1_545  A
N330        N331   1.319       .  A
N330       Mn334   2.199   1_655  S
N331        C338   1.352       .  A
N332        N333   1.318       .  A
N332       Mn335   2.196       .  S
N333        C337   1.353       .  A
Mn334      Cl336   2.553       .  S
Mn335      Cl336   2.540   1_645  S
C337        C423   1.484       .  S
C338        C535   1.475       .  S
C339        N340   1.357       .  A
C339        N344   1.360       .  A
C339        C451   1.484       .  S
N340        C341   1.358       .  A
C341        N342   1.360       .  A
C341        C432   1.486       .  S
N342        C343   1.359       .  A
C343        N344   1.359       .  A
C343        C347   1.473       .  S
C345        N346   1.359       .  A
C345        N350   1.356       .  A
C345        C395   1.492   1_655  S
N346        C347   1.361       .  A
C347        N348   1.362       .  A
N348        C349   1.361       .  A
C349        N350   1.355       .  A
C349        C367   1.485       .  S
C351        N352   1.359       .  A
C351        N356   1.356       .  A
C351        C572   1.478       .  S
N352        C353   1.362       .  A
C353        N354   1.362       .  A
C353        C361   1.476       .  S
N354        C355   1.362   1_545  A
C355        N356   1.358   1_565  A
C355        C544   1.485       .  S
C357        N358   1.357       .  A
C357        N362   1.358       .  A
C357        C516   1.488       .  S
N358        C359   1.356       .  A
C359        N360   1.364       .  A
C359        C479   1.498   1_545  S
N360        C361   1.363       .  A
C361        N362   1.359       .  A
C363        C364   1.402       .  A
C363        C368   1.403       .  A
C363        H373   1.088       .  S
C364        C369   1.480       .  S
C364        C365   1.407   1_655  A
C365        C366   1.398       .  A
C365        N370   1.429       .  S
C366        C367   1.407   1_455  A
C366        H371   1.087       .  S
C367        C368   1.413       .  A
C368        N372   1.429       .  S
C369        C374   1.408       .  A
C369        C378   1.400   1_655  A
N370        O385   1.262       .  A
N370        O386   1.262       .  A
N372        O383   1.262       .  A
N372        O384   1.262       .  A
C374        C375   1.401       .  A
C374        N379   1.430       .  S
C375        C376   1.408   1_655  A
C375        H380   1.087       .  S
C376        C377   1.415       .  A
C377        C378   1.403       .  A
C377        N381   1.428       .  S
C378        H382   1.087       .  S
N379        O389   1.262       .  A
N379        O390   1.262       .  A
N381        O387   1.262       .  A
N381        O388   1.262       .  A
C391        C392   1.403       .  A
C391        C396   1.402       .  A
C391        H401   1.087       .  S
C392        C397   1.484       .  S
C392        C393   1.408       .  A
C393        C394   1.398       .  A
C393        N398   1.432   1_455  S
C394        C395   1.409       .  A
C394        H399   1.087   1_455  S
C395        C396   1.417       .  A
C396        N400   1.429       .  S
C397        C402   1.412       .  A
C397        C406   1.396   1_455  A
N398        O413   1.262       .  A
N398        O414   1.262   1_655  A
N400        O411   1.262       .  A
N400        O412   1.262   1_455  A
C402        C403   1.405       .  A
C402        N407   1.433       .  S
C403        C404   1.407       .  A
C403        H408   1.087       .  S
C404        C405   1.416   1_455  A
C405        C406   1.399       .  A
C405        N409   1.427       .  S
C406        H410   1.088       .  S
N407        O417   1.262       .  A
N407        O418   1.262       .  A
N409        O415   1.262       .  A
N409        O416   1.262       .  A
C419        C420   1.403   1_455  A
C419        C424   1.402       .  A
C419        H429   1.089       .  S
C420        C425   1.483       .  S
C420        C421   1.409       .  A
C421        C422   1.396       .  A
C421        N426   1.430       .  S
C422        C423   1.405       .  A
C422        H427   1.089       .  S
C423        C424   1.415   1_655  A
C424        N428   1.429       .  S
C425        C430   1.409       .  A
C425        C434   1.400   1_655  A
N426        O441   1.262       .  A
N426        O442   1.262       .  A
N428        O439   1.262       .  A
N428        O440   1.262       .  A
C430        C431   1.400       .  A
C430        N435   1.429       .  S
C431        C432   1.406       .  A
C431        H436   1.089       .  S
C432        C433   1.418   1_655  A
C433        C434   1.399       .  A
C433        N437   1.433       .  S
C434        H438   1.090       .  S
N435        O445   1.262       .  A
N435        O446   1.262       .  A
N437        O443   1.262       .  A
N437        O444   1.262       .  A
C447        C448   1.401       .  A
C447        C452   1.403       .  A
C447        H457   1.090       .  S
C448        C453   1.484       .  S
C448        C449   1.410   1_655  A
C449        C450   1.398       .  A
C449        N454   1.429       .  S
C450        C451   1.403   1_455  A
C450        H455   1.089       .  S
C451        C452   1.417       .  A
C452        N456   1.434       .  S
C453        C458   1.410   1_655  A
C453        C462   1.400       .  A
N454        O469   1.262       .  A
N454        O470   1.262       .  A
N456        O467   1.262       .  A
N456        O468   1.262       .  A
C458        C459   1.401       .  A
C458        N463   1.429       .  S
C459        C460   1.405       .  A
C459        H464   1.089       .  S
C460        C461   1.417   1_455  A
C461        C462   1.399       .  A
C461        N465   1.429       .  S
C462        H466   1.089       .  S
N463        O473   1.262       .  A
N463        O474   1.262       .  A
N465        O471   1.262       .  A
N465        O472   1.262       .  A
C475        C476   1.399       .  A
C475        C480   1.400       .  A
C475        H485   1.089       .  S
C476        C481   1.489       .  S
C476        C477   1.410   1_545  A
C477        C478   1.402       .  A
C477        N482   1.429       .  S
C478        C479   1.407       .  A
C478        H483   1.088       .  S
C479        C480   1.423   1_565  A
C480        N484   1.430       .  S
C481        C486   1.412       .  A
C481        C490   1.403   1_545  A
N482        O497   1.262       .  A
N482        O498   1.262   1_565  A
N484        O495   1.262       .  A
N484        O496   1.262   1_545  A
C486        C487   1.401       .  A
C486        N491   1.430       .  S
C487        C488   1.404   1_545  A
C487        H492   1.085       .  S
C488        C489   1.410       .  A
C489        C490   1.403       .  A
C489        N493   1.428       .  S
C490        H494   1.085       .  S
N491        O501   1.262       .  A
N491        O502   1.262       .  A
N493        O499   1.263       .  A
N493        O500   1.262       .  A
C503        C504   1.401   1_565  A
C503        C508   1.398       .  A
C503        H513   1.090       .  S
C504        C509   1.481       .  S
C504        C505   1.408       .  A
C505        C506   1.400       .  A
C505        N510   1.429       .  S
C506        C507   1.405   1_545  A
C506        H511   1.089       .  S
C507        C508   1.416       .  A
C508        N512   1.430       .  S
C509        C514   1.408       .  A
C509        C518   1.401       .  A
N510        O525   1.262       .  A
N510        O526   1.262       .  A
N512        O523   1.262       .  A
N512        O524   1.262       .  A
C514        C515   1.395       .  A
C514        N519   1.429       .  S
C515        C516   1.405       .  A
C515        H520   1.099       .  S
C516        C517   1.418   1_545  A
C517        C518   1.401   1_565  A
C517        N521   1.430       .  S
C518        H522   1.095   1_545  S
N519        O529   1.262       .  A
N519        O530   1.262       .  A
N521        O527   1.262       .  A
N521        O528   1.262   1_565  A
C531        C532   1.408       .  A
C531        C536   1.402       .  A
C531        H541   1.090       .  S
C532        C537   1.494       .  S
C532        C533   1.415   1_565  A
C533        C534   1.398       .  A
C533        N538   1.430       .  S
C534        C535   1.400   1_545  A
C534        H539   1.090       .  S
C535        C536   1.408       .  A
C536        N540   1.429       .  S
C537        C542   1.414   1_565  A
C537        C546   1.406       .  A
N538        O553   1.262   1_545  A
N538        O554   1.262       .  A
N540        O551   1.262   1_565  A
N540        O552   1.262       .  A
C542        C543   1.399       .  A
C542        N547   1.431       .  S
C543        C544   1.404   1_545  A
C543        H548   1.090       .  S
C544        C545   1.412       .  A
C545        C546   1.402       .  A
C545        N549   1.429       .  S
C546        H550   1.090       .  S
N547        O557   1.262       .  A
N547        O558   1.262       .  A
N549        O555   1.262       .  A
N549        O556   1.262       .  A
C559        C560   1.407       .  A
C559        C564   1.404       .  A
C559        H569   1.085       .  S
C560        C565   1.498   1_565  S
C560        C561   1.414   1_565  A
C561        C562   1.403       .  A
C561        N566   1.431       .  S
C562        C563   1.405   1_545  A
C562        H567   1.085       .  S
C563        C564   1.412       .  A
C564        N568   1.432       .  S
C565        C570   1.416   1_545  A
C565        C574   1.408       .  A
N566        O581   1.262       .  A
N566        O582   1.262   1_545  A
N568        O579   1.262       .  A
N568        O580   1.262   1_565  A
C570        C571   1.400       .  A
C570        N575   1.430       .  S
C571        C572   1.400   1_565  A
C571        H576   1.089       .  S
C572        C573   1.409       .  A
C573        C574   1.404       .  A
C573        N577   1.429       .  S
C574        H578   1.088       .  S
N575        O585   1.262       .  A
N575        O586   1.262       .  A
N577        O583   1.262       .  A
N577        O584   1.262       .  A
