geometry optimzed in LAMMPS
_audit_creation_date              2020-11-30 
_audit_creation_method            'lammps2cif' 
_symmetry_space_group_name_H-M    'P1' 
_symmetry_Int_Tables_number       1 
_symmetry_cell_setting            triclinic 
loop_ 
_symmetry_equiv_pos_as_xyz 
  x,y,z 
_cell_length_a                    25.54522326847771 
_cell_length_b                    25.372448385833405 
_cell_length_c                    26.51375219982865 
_cell_angle_alpha                 90.85141728016754 
_cell_angle_beta                  90.34646955910148 
_cell_angle_gamma                 90.27718494651864 
loop_ 
_atom_site_label 
_atom_site_type_symbol 
_atom_site_fract_x 
_atom_site_fract_y 
_atom_site_fract_z 
_atom_site_charge 
O1          O  0.40616192  0.00794900  0.54040161    -0.88310
C2          C  0.54791405  0.01665546  0.60868875     0.87710
Mg3        Mg  0.38256469  0.94064452  0.49695662     1.58150
O4          O  0.53603421  0.09755577  0.50406916    -0.88050
O5          O  0.41725495  0.09342259  0.53154848    -0.75380
C6          C  0.59213253  0.89212165  0.35704409     0.92770
O7          O  0.47592334  0.91615527  0.58785424    -0.75190
O8          O  0.55074869  0.86926205  0.37214508    -0.82700
Mg9        Mg  0.43680335  0.99323050  0.61389570     1.57960
C10         C  0.64327807  0.10756251  0.39426171     0.92690
O11         O  0.39291590  0.06731483  0.64332887    -0.80960
H12         H  0.49698552  0.15359569  0.46748476    -0.06300
C13         C  0.60620190  0.95784427  0.48276099     0.87630
O14         O  0.40493433  0.98361327  0.42421869    -0.75470
O15         O  0.50579810  0.03513300  0.59388155    -0.88230
O16         O  0.63993658  0.11449621  0.44203035    -0.81040
C17         C  0.62001608  0.14455799  0.60838678     0.92800
C18         C  0.40404252  0.11542876  0.65312648     0.92660
Mg19       Mg  0.55699324  0.01514550  0.39518182     1.57950
O20         O  0.60044302  0.94128175  0.36451156    -0.80960
O21         O  0.51750746  0.09133997  0.42304801    -0.75210
O22         O  0.57123777  0.13699599  0.61535814    -0.81050
O23         O  0.36828234  0.94375345  0.63688886    -0.82760
O24         O  0.42552517  0.86531560  0.39864370    -0.81080
C25         C  0.51676897  0.11608258  0.46516478     0.87090
O26         O  0.48943021  0.97096020  0.41513069    -0.88220
O27         O  0.58972313  0.00083631  0.46790496    -0.88320
O28         O  0.57941100  0.91554650  0.47850943    -0.75380
Mg29       Mg  0.49523533  0.11422379  0.57174246     1.57970
O30         O  0.64070417  0.13344781  0.56585308    -0.82750
H31         H  0.35313651  0.05319922  0.50625361    -0.06480
O32         O  0.46012585  0.91094585  0.50641233    -0.88020
H33         H  0.49730791  0.85405159  0.54358826    -0.06300
H34         H  0.44648618  0.00944488  0.36432339    -0.06480
C35         C  0.47796025  0.89181170  0.54561955     0.87070
C36         C  0.39035971  0.05130101  0.52573977     0.87660
C37         C  0.44718719  0.98831218  0.39944671     0.87700
H38         H  0.64386013  0.95654581  0.50151320    -0.06460
O39         O  0.59018220  0.02212173  0.58403255    -0.75490
Mg40       Mg  0.50160220  0.89234315  0.43977384     1.58000
H41         H  0.54855016  0.99413171  0.64299416    -0.06480
C42         C  0.35153831  0.90217395  0.61476835     0.92690
O43         O  0.35494728  0.87257184  0.44632993    -0.82720
C44         C  0.37655553  0.85745024  0.40559074     0.92750
O45         O  0.44777551  0.13491372  0.64037330    -0.82700
Mg46       Mg  0.61323370  0.06722870  0.51247118     1.58180
O47         O  0.35679093  0.89465838  0.56739973    -0.81030
O48         O  0.62391019  0.06731556  0.37172142    -0.82730
O49         O  0.96405725  0.40877529  0.49332029    -0.88310
C50         C  0.89294896  0.54806048  0.47271258     0.87710
Mg51       Mg  0.00228480  0.39092393  0.56205466     1.58150
O52         O  0.01142512  0.53424234  0.40934657    -0.88050
O53         O  0.98407591  0.41418402  0.41304831    -0.75380
C54         C  0.14205616  0.60482149  0.61567877     0.92770
O55         O  0.90676982  0.48374816  0.57353107    -0.75190
O56         O  0.12633084  0.56155572  0.63401619    -0.82700
Mg57       Mg  0.88675148  0.43925747  0.49947580     1.57960
C58         C  0.12375830  0.64732283  0.40596659     0.92690
O59         O  0.86197988  0.39232513  0.42808905    -0.80960
H60         H  0.05620563  0.49555174  0.35958664    -0.06300
C61         C  0.01774394  0.61332373  0.54179567     0.87630
O62         O  0.08162039  0.41241398  0.52608048    -0.75470
O63         O  0.91088964  0.50529376  0.45795920    -0.88230
O64         O  0.07519773  0.63875068  0.39775181    -0.81040
C65         C  0.90928133  0.61093442  0.34798495     0.92800
C66         C  0.85877516  0.39857661  0.38057404     0.92660
Mg67       Mg  0.11551946  0.56622943  0.49604780     1.57950
O68         O  0.13795356  0.61428629  0.56870903    -0.80960
O69         O  0.09576076  0.52231119  0.42157589    -0.75210
O70         O  0.90074234  0.56213048  0.35521457    -0.81050
O71         O  0.85860876  0.37269784  0.54712867    -0.82760
O72         O  0.10077125  0.43797707  0.63967731    -0.81080
C73         C  0.05427774  0.51702540  0.39505235     0.87090
O74         O  0.09101748  0.49814202  0.53665307    -0.88220
O75         O  0.03740973  0.59512978  0.50271113    -0.88320
O76         O  0.01918059  0.58871593  0.58324559    -0.75380
Mg77       Mg  0.94462067  0.48990065  0.38585629     1.57970
O78         O  0.95026062  0.63389674  0.36530909    -0.82750
H79         H  0.00419651  0.35256919  0.45694749    -0.06480
O80         O  0.99046369  0.46973124  0.58663885    -0.88020
H81         H  0.94634652  0.51031621  0.63557201    -0.06300
H82         H  0.14593800  0.45330967  0.50418436    -0.06480
C83         C  0.94803632  0.48830867  0.60038736     0.87070
C84         C  0.98422070  0.38993091  0.45470968     0.87660
C85         C  0.10801869  0.45488416  0.52199203     0.87700
H86         H  0.99747676  0.65057288  0.54031220    -0.06460
O87         O  0.91907471  0.59073295  0.47030143    -0.75490
Mg88       Mg  0.05837687  0.51219178  0.60906527     1.58000
H89         H  0.85462618  0.54884063  0.48975222    -0.06480
C90         C  0.87708529  0.35968709  0.58967925     0.92690
O91         O  0.04702739  0.36913901  0.63194589    -0.82720
C92         C  0.08910992  0.39001528  0.64851237     0.92750
O93         O  0.87834334  0.43821529  0.35879855    -0.82700
Mg94       Mg  0.99783854  0.61287193  0.43490776     1.58180
O95         O  0.92507702  0.36718503  0.60144015    -0.81030
O96         O  0.14468943  0.63386823  0.44752882    -0.82730
O97         O  0.50127645  0.53443857  0.08240083    -0.88310
C98         C  0.49130549  0.60717618  0.94787663     0.87710
Mg99       Mg  0.56775943  0.48997766  0.10356806     1.58150
O100        O  0.41297430  0.49529533  0.95892748    -0.88050
O101        O  0.41623718  0.52420295  0.07360354    -0.75380
C102        C  0.61380585  0.34580651  0.89587361     0.92770
O103        O  0.59247210  0.58498178  0.01636327    -0.75190
O104        O  0.63452453  0.35954255  0.93800962    -0.82700
Mg105      Mg  0.51586129  0.61111927  0.05436435     1.57960
C106        C  0.39784494  0.38364874  0.85340595     0.92690
O107        O  0.44230540  0.64001757  0.09648535    -0.80960
H108        H  0.35739058  0.45569206  0.99559628    -0.06300
C109        C  0.55018807  0.47754269  0.88953579     0.87630
O110        O  0.52424333  0.41378707  0.07932158    -0.75470
O111        O  0.47361971  0.59039073  0.98802438    -0.88230
O112        O  0.39305268  0.43301440  0.86056319    -0.81040
C113        C  0.36215067  0.60159011  0.88143883     0.92800
C114        C  0.39442083  0.64934584  0.08665525     0.92660
Mg115      Mg  0.49277750  0.38348904  0.93139613     1.57950
O116        O  0.56552599  0.35418164  0.88664429    -0.80960
O117        O  0.41782005  0.41007865  0.97201455    -0.75210
O118        O  0.37086412  0.60913604  0.92817997    -0.81050
O119        O  0.56416223  0.63517418  0.12123935    -0.82760
O120        O  0.64253595  0.38405546  0.05991693    -0.81080
C121        C  0.39420288  0.45402327  0.97576829     0.87090
O122        O  0.53686782  0.40337717  0.99788350    -0.88220
O123        O  0.50748607  0.46083349  0.90464656    -0.88320
O124        O  0.59236139  0.47220698  0.91474423    -0.75380
Mg125      Mg  0.39513617  0.56502811  0.99916455     1.57970
O126        O  0.37452277  0.55821827  0.86006806    -0.82750
H127        H  0.45738334  0.49919389  0.13442014    -0.06480
O128        O  0.59827047  0.49992217  0.02983674    -0.88020
H129        H  0.65436465  0.54032779  0.99472332    -0.06300
H130        H  0.49724532  0.35090904  0.03850658    -0.06480
C131        C  0.61691570  0.54143700  0.01344919     0.87070
C132        C  0.45855565  0.51896256  0.09858512     0.87660
C133        C  0.51905147  0.38751035  0.03830314     0.87700
H134        H  0.55142028  0.49867881  0.85443745    -0.06460
O135        O  0.48603427  0.58168758  0.90643699    -0.75490
Mg136      Mg  0.61501700  0.42968027  0.98778368     1.58000
H137        H  0.51306442  0.64381426  0.94830686    -0.06480
C138        C  0.60399362  0.61370070  0.14076336     0.92690
O139        O  0.63418451  0.43771199  0.12671118    -0.82720
C140        C  0.65045806  0.39503399  0.10666881     0.92750
O141        O  0.37332824  0.63640337  0.04487088    -0.82700
Mg142      Mg  0.44125525  0.50580027  0.88433627     1.58180
O143        O  0.61385223  0.56468875  0.13390903    -0.81030
O144        O  0.44009732  0.36030434  0.86540264    -0.82730
O145        O  0.04215605  0.98365094  0.91476498    -0.88310
C146        C  0.10880625  0.97949410  0.05273121     0.87710
Mg147      Mg  0.99972006  0.04907696  0.88895816     1.58150
O148        O  0.99562435  0.90256100  0.04011137    -0.88050
O149        O  0.02782841  0.89924298  0.92607759    -0.75380
C150        C  0.85087751  0.11630903  0.08419533     0.92770
O151        O  0.09198357  0.07846186  0.98049681    -0.75190
O152        O  0.86702955  0.13651479  0.04351379    -0.82700
Mg153      Mg  0.11804360  0.99926918  0.94606965     1.57960
C154        C  0.87703915  0.90474051  0.14124811     0.92690
O155        O  0.14689723  0.92290616  0.90866178    -0.80960
H156        H  0.95509835  0.84590851  0.00373085    -0.06300
C157        C  0.97831576  0.04752842  0.10284367     0.87630
O158        O  0.92245487  0.00890311  0.90982646    -0.75470
O159        O  0.09393570  0.95944673  0.01219034    -0.88230
O160        O  0.92630300  0.89531666  0.13974949    -0.81040
C161        C  0.09745814  0.85342451  0.12398741     0.92800
C162        C  0.15312268  0.87395771  0.91694900     0.92660
Mg163      Mg  0.88627786  0.99034263  0.05489600     1.57950
O164        O  0.85771365  0.06736964  0.09252945    -0.80960
O165        O  0.91221665  0.91086995  0.02061714    -0.75210
O166        O  0.10621206  0.85682767  0.07678936    -0.81050
O167        O  0.14614809  0.04609919  0.87866009    -0.82760
O168        O  0.89800102  0.13094385  0.92447640    -0.81080
C169        C  0.95453169  0.88454877  0.02144531     0.87090
O170        O  0.91048143  0.02936114  0.98954634    -0.88220
O171        O  0.96172321  0.00408516  0.08762121    -0.88320
O172        O  0.97567450  0.08870637  0.07606831    -0.75380
Mg173      Mg  0.06577373  0.88027676  0.00237436     1.57970
O174        O  0.05562038  0.87121600  0.14395887    -0.82750
H175        H  0.00716659  0.93775545  0.86252498    -0.06480
O176        O  0.00822237  0.08488399  0.96220947    -0.88020
H177        H  0.04809023  0.14265058  0.99761653    -0.06300
H178        H  0.85752743  0.98866378  0.94883777    -0.06480
C179        C  0.04917988  0.10390750  0.98014896     0.87070
C180        C  0.02567517  0.94032400  0.89927736     0.87660
C181        C  0.89486397  0.00887942  0.94952436     0.87700
H182        H  0.99702085  0.05022814  0.13949671    -0.06460
O183        O  0.08109019  0.97791742  0.09241677    -0.75490
Mg184      Mg  0.93821619  0.10816929  0.99931812     1.58000
H185        H  0.14577582  0.00036035  0.05406240    -0.06480
C186        C  0.12292983  0.08424150  0.85756985     0.92690
O187        O  0.95103062  0.11479975  0.85966987    -0.82720
C188        C  0.90891254  0.13343802  0.87769646     0.92750
O189        O  0.13682976  0.85306838  0.95733179    -0.82700
Mg190      Mg  0.00370706  0.93744586  0.11383004     1.58180
O191        O  0.07382529  0.09142911  0.86172113    -0.81030
O192        O  0.85690591  0.94456979  0.12041095    -0.82730
C193        C  0.75010996  0.75363399  0.25913732    -0.02460
C194        C  0.76351402  0.25255383  0.74999026    -0.02460
C195        C  0.24977053  0.75174198  0.75245749    -0.02460
C196        C  0.24143806  0.24882647  0.74936978    -0.02460
C197        C  0.75075048  0.24321616  0.24821069    -0.02460
C198        C  0.25832144  0.73879300  0.24418656    -0.02460
C199        C  0.20935545  0.82492992  0.21581777    -0.05750
C200        C  0.21731685  0.76989000  0.20883376     0.00180
C201        C  0.18559880  0.74456022  0.16906826    -0.08390
C202        C  0.14792927  0.77431258  0.14312629    -0.05770
C203        C  0.13721738  0.82642792  0.15532777     0.00160
C204        C  0.16818847  0.85254446  0.19222187    -0.08180
C205        C  0.15823711  0.90990403  0.20590565     0.62070
H206        H  0.23515115  0.84748119  0.23990424     0.12770
H207        H  0.12530394  0.75673891  0.11249259     0.12780
C208        C  0.18811603  0.68647291  0.15247337     0.62310
F209        F  0.19290362  0.92875663  0.24231609    -0.22860
F210        F  0.10812837  0.91516633  0.22472060    -0.20190
F211        F  0.16333684  0.94056873  0.16354143    -0.19860
F212        F  0.18982244  0.65380722  0.19309600    -0.19920
F213        F  0.23074506  0.67784812  0.12179501    -0.20240
F214        F  0.14432681  0.67087466  0.12486833    -0.22910
C215        C  0.81063176  0.22997378  0.17323914    -0.05750
C216        C  0.78194179  0.20405457  0.21156721     0.00180
C217        C  0.77907349  0.14660994  0.20663655    -0.08390
C218        C  0.79841652  0.12251752  0.16209589    -0.05770
C219        C  0.82530834  0.14941263  0.12455437     0.00160
C220        C  0.83193057  0.20457710  0.13042207    -0.08300
C221        C  0.86094432  0.23741879  0.09191051     0.62070
H222        H  0.81567148  0.27213455  0.17674876     0.12770
H223        H  0.79387802  0.08053951  0.15632588     0.12780
C224        C  0.76134382  0.10687957  0.24653854     0.62310
F225        F  0.86332444  0.29025283  0.10564039    -0.22860
F226        F  0.83546678  0.23385571  0.04578151    -0.20190
F227        F  0.91179709  0.21962816  0.08712484    -0.19860
F228        F  0.70991836  0.11355449  0.26003103    -0.19920
F229        F  0.79420324  0.10990593  0.28790616    -0.20240
F230        F  0.76434411  0.05495602  0.22988679    -0.22910
C231        C  0.18063425  0.16207962  0.85769713    -0.05750
C232        C  0.15383512  0.12341530  0.82966468     0.00180
C233        C  0.14901004  0.12915235  0.77724385    -0.08390
C234        C  0.17750656  0.16960685  0.75402592    -0.05770
C235        C  0.20786220  0.20759273  0.78085268     0.00160
C236        C  0.20044579  0.20792478  0.83495593    -0.08300
C237        C  0.19772240  0.25747153  0.86849429     0.62070
H238        H  0.17921157  0.16006748  0.89852134     0.12770
H239        H  0.17117493  0.17489805  0.71520005     0.12780
C240        C  0.11257515  0.09361928  0.74633236     0.62310
F241        F  0.15780440  0.25282322  0.90337401    -0.22860
F242        F  0.18616381  0.30177992  0.84128601    -0.20190
F243        F  0.24371897  0.26498222  0.89522086    -0.19860
F244        F  0.06149484  0.10094994  0.76180916    -0.19920
F245        F  0.12621246  0.04147197  0.75285309    -0.20240
F246        F  0.11453073  0.10426792  0.69538541    -0.22910
C247        C  0.17542053  0.76787443  0.81611925    -0.05750
C248        C  0.21548471  0.79058217  0.78648274     0.00180
C249        C  0.22698912  0.84500024  0.79782008    -0.08390
C250        C  0.21416963  0.86544205  0.84572888    -0.05770
C251        C  0.17703202  0.84112073  0.87629858     0.00160
C252        C  0.15517546  0.79234669  0.85980643    -0.08300
C253        C  0.10991943  0.76634196  0.88712006     0.62070
H254        H  0.15937559  0.73029104  0.80500452     0.12770
H255        H  0.22720135  0.90498534  0.85585510     0.12780
C256        C  0.23460964  0.88738917  0.75846121     0.62310
F257        F  0.09240256  0.72107453  0.86240018    -0.22860
F258        F  0.06821089  0.80073318  0.89016992    -0.20190
F259        F  0.12559759  0.75246993  0.93509477    -0.19860
F260        F  0.21795330  0.87057043  0.71149484    -0.19920
F261        F  0.28610447  0.90388382  0.75755040    -0.20240
F262        F  0.20461508  0.93130577  0.77005105    -0.22910
C263        C  0.89451234  0.19455926  0.80859918    -0.05750
C264        C  0.87270770  0.15996073  0.84285673     0.00180
C265        C  0.81854146  0.15036593  0.84172168    -0.08390
C266        C  0.78725898  0.18126449  0.81029307    -0.05770
C267        C  0.80753213  0.22060041  0.77768613     0.00160
C268        C  0.86431340  0.22530331  0.77544455    -0.08300
C269        C  0.89639850  0.26543576  0.74619894     0.62070
H270        H  0.93658036  0.19932546  0.81067174     0.12770
H271        H  0.74532771  0.17585851  0.81247531     0.12780
C272        C  0.79367800  0.10705266  0.87268058     0.62310
F273        F  0.89022327  0.31495008  0.76716941    -0.22860
F274        F  0.94941633  0.25497627  0.74832247    -0.20190
F275        F  0.88426868  0.26481137  0.69583942    -0.19860
F276        F  0.79648919  0.11986087  0.92347224    -0.19920
F277        F  0.81955493  0.06007771  0.86386638    -0.20240
F278        F  0.74148140  0.09928907  0.86015061    -0.22910
C279        C  0.84683233  0.86953785  0.22116854    -0.05750
C280        C  0.84201790  0.86925946  0.16925928     0.00180
C281        C  0.80320317  0.83732749  0.14588288    -0.08390
C282        C  0.77329774  0.80292562  0.17581845    -0.05770
C283        C  0.78211223  0.79714880  0.22847383     0.00160
C284        C  0.81799820  0.83538023  0.25159508    -0.08300
C285        C  0.83226069  0.84221455  0.30703876     0.62070
H286        H  0.87477442  0.89685440  0.23836742     0.12770
H287        H  0.74325394  0.77967075  0.15732995     0.12780
C288        C  0.79407038  0.83906913  0.08930636     0.62310
F289        F  0.88613288  0.83997319  0.31302093    -0.22860
F290        F  0.81191728  0.80481658  0.33715317    -0.20190
F291        F  0.81512168  0.89090686  0.32408574    -0.19860
F292        F  0.84010292  0.82750088  0.06439633    -0.19920
F293        F  0.77751790  0.88879697  0.07600476    -0.20240
F294        F  0.75634912  0.80308399  0.07332101    -0.22910
C295        C  0.31099195  0.74033271  0.16513509    -0.05750
C296        C  0.29244556  0.70744199  0.20467671     0.00180
C297        C  0.30582936  0.65176055  0.20014806    -0.08390
C298        C  0.34227480  0.63667246  0.16269806    -0.05770
C299        C  0.36087825  0.67116271  0.12638615     0.00160
C300        C  0.34427124  0.72342041  0.12655064    -0.08300
C301        C  0.36351996  0.76177025  0.08727941     0.62070
H302        H  0.30075385  0.78160891  0.16550495     0.12770
H303        H  0.35497892  0.59593526  0.16007110     0.12780
C304        C  0.28557955  0.60357869  0.22850183     0.62310
F305        F  0.34550648  0.81246524  0.09591182    -0.22860
F306        F  0.34614789  0.74553565  0.04020561    -0.20190
F307        F  0.41766719  0.76327555  0.08772395    -0.19860
F308        F  0.24364669  0.61119173  0.25930039    -0.19920
F309        F  0.32597443  0.58277375  0.25679321    -0.20240
F310        F  0.26970590  0.56544299  0.19362126    -0.22910
C311        C  0.28874883  0.72440808  0.83809599    -0.05750
C312        C  0.28746546  0.71705397  0.78486101     0.00180
C313        C  0.31961611  0.67521785  0.76456543    -0.08390
C314        C  0.34502202  0.64115693  0.79813870    -0.05770
C315        C  0.33871276  0.64440752  0.85055789     0.00160
C316        C  0.31185508  0.68843283  0.87113501    -0.08300
C317        C  0.30624400  0.69780759  0.92763823     0.62070
H318        H  0.26946485  0.75770433  0.85497844     0.12770
H319        H  0.36879884  0.60965661  0.78256954     0.12780
C320        C  0.32965918  0.66177497  0.70906325     0.62310
F321        F  0.27601973  0.74151551  0.93906101    -0.22860
F322        F  0.35524581  0.70619173  0.94868804    -0.20190
F323        F  0.28244466  0.65471169  0.94940513    -0.19860
F324        F  0.38198350  0.67059042  0.69887801    -0.19920
F325        F  0.30062861  0.68946688  0.67500554    -0.20240
F326        F  0.31876118  0.60893073  0.70014074    -0.22910
C327        C  0.69238237  0.29493962  0.87534786    -0.05750
C328        C  0.64869921  0.32134486  0.85701794     0.00180
C329        C  0.64599998  0.33178444  0.80459548    -0.08390
C330        C  0.68603710  0.31234889  0.77275431    -0.05770
C331        C  0.73033566  0.28457479  0.79090971     0.00160
C332        C  0.73617977  0.28395078  0.84547416    -0.08300
C333        C  0.78601171  0.28111888  0.87800107     0.62070
H334        H  0.69532685  0.28882705  0.91573276     0.12770
H335        H  0.68182126  0.31646755  0.73234464     0.12780
C336        C  0.60171328  0.36354203  0.78196319     0.62310
F337        F  0.83221907  0.28398600  0.85234966    -0.22860
F338        F  0.78697866  0.32371112  0.91138354    -0.20190
F339        F  0.78522063  0.23584874  0.90634984    -0.19860
F340        F  0.60012006  0.41280439  0.80481452    -0.19920
F341        F  0.55453908  0.33780202  0.78893699    -0.20240
F342        F  0.60802892  0.37068260  0.73067911    -0.22910
C343        C  0.66484910  0.30318031  0.13622643    -0.05750
C344        C  0.67786723  0.35681663  0.13968334     0.00180
C345        C  0.71611560  0.37310944  0.17499970    -0.08390
C346        C  0.73799541  0.33546301  0.20689668    -0.05770
C347        C  0.72126628  0.28147696  0.20939671     0.00160
C348        C  0.68535670  0.26507243  0.16966129    -0.08300
C349        C  0.67206288  0.20823805  0.15554822     0.62070
H350        H  0.63775989  0.29102287  0.10662034     0.12770
H351        H  0.77089023  0.34949113  0.22854290     0.12780
C352        C  0.73582424  0.43001918  0.17799536     0.62310
F353        F  0.62200270  0.20438623  0.13540318    -0.22860
F354        F  0.67350094  0.17544034  0.19601388    -0.20190
F355        F  0.70680408  0.19045559  0.11945608    -0.19860
F356        F  0.69775511  0.46200489  0.19887398    -0.19920
F357        F  0.74800894  0.44752130  0.13028215    -0.20240
F358        F  0.78038861  0.43551604  0.20764930    -0.22910
C359        C  0.65791552  0.71638484  0.23294183    -0.05750
C360        C  0.71311819  0.71707038  0.22372376     0.00180
C361        C  0.73096539  0.67954169  0.18554102    -0.08390
C362        C  0.69375832  0.64622546  0.16075568    -0.05770
C363        C  0.64019611  0.64787944  0.17087561     0.00160
C364        C  0.62186025  0.68325977  0.20791612    -0.08300
C365        C  0.56432347  0.68437310  0.22326347     0.62070
H366        H  0.64136249  0.73962686  0.26276769     0.12770
H367        H  0.70642395  0.61732211  0.13300130     0.12780
C368        C  0.78803364  0.66684508  0.17297264     0.62310
F369        F  0.55618759  0.71385356  0.26687171    -0.22860
F370        F  0.54676122  0.63368806  0.23211565    -0.20190
F371        F  0.53449901  0.70633913  0.18538979    -0.19860
F372        F  0.80722782  0.63114853  0.20717159    -0.19920
F373        F  0.81998203  0.71040301  0.17244044    -0.20240
F374        F  0.79218224  0.64395939  0.12539419    -0.22910
C375        C  0.35360290  0.29724196  0.84113553    -0.05750
C376        C  0.35279082  0.35174975  0.83306135     0.00180
C377        C  0.30845615  0.37339545  0.80858863    -0.08390
C378        C  0.27017377  0.33886132  0.78861512    -0.05770
C379        C  0.27547791  0.28314597  0.78792755     0.00160
C380        C  0.31685435  0.26209393  0.81934301    -0.08300
C381        C  0.32867026  0.20390830  0.82958269     0.62070
H382        H  0.38515097  0.28110032  0.86358909     0.12770
H383        H  0.23637787  0.35648021  0.77155836     0.12780
C384        C  0.30117221  0.43250422  0.80193606     0.62310
F385        F  0.38056292  0.19359423  0.81870921    -0.22860
F386        F  0.29927494  0.16793674  0.80224257    -0.20190
F387        F  0.32118341  0.19430125  0.88023250    -0.19860
F388        F  0.34350962  0.45330242  0.77658358    -0.19920
F389        F  0.29628404  0.45701953  0.84860683    -0.20240
F390        F  0.25669270  0.44413790  0.77419692    -0.22910
C391        C  0.19261823  0.62404208  0.69222878    -0.05750
C392        C  0.16482807  0.64426196  0.65147713     0.00180
C393        C  0.15039601  0.69835834  0.65317485    -0.08390
C394        C  0.17113442  0.73105098  0.69233042    -0.05770
C395        C  0.20922632  0.71200474  0.72618354     0.00160
C396        C  0.20695585  0.65588866  0.73334223    -0.08300
C397        C  0.20589155  0.62662707  0.78335844     0.62070
H398        H  0.19734332  0.58170107  0.69514656     0.12770
H399        H  0.16336125  0.77295684  0.69243196     0.12780
C400        C  0.11379822  0.72153857  0.61425032     0.62310
F401        F  0.15886868  0.59950581  0.78659874    -0.22860
F402        F  0.20877561  0.65841292  0.82557337    -0.20190
F403        F  0.24568280  0.58999233  0.78491156    -0.19860
F404        F  0.06707279  0.69390279  0.61361875    -0.19920
F405        F  0.13647185  0.71866981  0.56707155    -0.20240
F406        F  0.10273188  0.77390199  0.62476241    -0.22910
C407        C  0.21184611  0.66821437  0.36950065    -0.05750
C408        C  0.15708925  0.67087134  0.36529708     0.00180
C409        C  0.13591042  0.69282280  0.32103026    -0.08390
C410        C  0.16961988  0.70938800  0.28299739    -0.05770
C411        C  0.22528063  0.70655274  0.28481634     0.00160
C412        C  0.24622847  0.68422953  0.33072022    -0.08300
C413        C  0.30362202  0.67400853  0.34211348     0.62070
H414        H  0.22848368  0.65166514  0.40346024     0.12770
H415        H  0.15001796  0.72562902  0.25146689     0.12780
C416        C  0.07745525  0.70032700  0.31321588     0.62310
F417        F  0.32056251  0.70823414  0.37991541    -0.22860
F418        F  0.33539848  0.67915024  0.30110155    -0.20190
F419        F  0.30956586  0.62291292  0.35881077    -0.19860
F420        F  0.05697283  0.72711127  0.35438672    -0.19920
F421        F  0.05375099  0.65155480  0.30708597    -0.20240
F422        F  0.06554173  0.72938395  0.27083695    -0.22910
C423        C  0.83839246  0.36330254  0.67479279    -0.05750
C424        C  0.84115303  0.33804721  0.62760567     0.00180
C425        C  0.80664653  0.29614762  0.61682320    -0.08390
C426        C  0.77427051  0.27832647  0.65554452    -0.05770
C427        C  0.78216524  0.29257323  0.70724899     0.00160
C428        C  0.80670525  0.34376826  0.71421306    -0.08300
C429        C  0.79592128  0.38242614  0.75766188     0.62070
H430        H  0.86086388  0.39927655  0.67997583     0.12770
H431        H  0.74293086  0.25276644  0.64395224     0.12780
C432        C  0.80607026  0.26791816  0.56580179     0.62310
F433        F  0.82652161  0.42750208  0.75498085    -0.22860
F434        F  0.80608537  0.36103687  0.80368980    -0.20190
F435        F  0.74452377  0.39870668  0.75550205    -0.19860
F436        F  0.85646536  0.25321474  0.55310055    -0.19920
F437        F  0.78626346  0.30068556  0.52923173    -0.20240
F438        F  0.77559431  0.22264237  0.56625058    -0.22910
C439        C  0.14985600  0.28953969  0.73584456    -0.05750
C440        C  0.20258076  0.28565236  0.71864149     0.00180
C441        C  0.21712484  0.32136737  0.67858637    -0.08390
C442        C  0.17856601  0.35515351  0.65841184    -0.05770
C443        C  0.12707762  0.35633370  0.67556851     0.00160
C444        C  0.11251930  0.32364149  0.71539942    -0.08300
C445        C  0.05769479  0.32565944  0.73725134     0.62070
H446        H  0.13663426  0.26642029  0.76689624     0.12770
H447        H  0.18782951  0.38092445  0.62750894     0.12780
C448        C  0.27165582  0.32621884  0.65535359     0.62310
F449        F  0.05319248  0.29640021  0.78070872    -0.22860
F450        F  0.02239317  0.30568100  0.70220850    -0.20190
F451        F  0.04478680  0.37722971  0.74918445    -0.19860
F452        F  0.28533944  0.28025633  0.63056882    -0.19920
F453        F  0.30836420  0.33938399  0.69155603    -0.20240
F454        F  0.27424518  0.36554281  0.61975429    -0.22910
C455        C  0.81584903  0.63203960  0.32874801    -0.05750
C456        C  0.86913748  0.64254622  0.32109385     0.00180
C457        C  0.88280314  0.68428959  0.28979047    -0.08390
C458        C  0.84403502  0.71878403  0.27390235    -0.05770
C459        C  0.78957659  0.71299934  0.28413197     0.00160
C460        C  0.77547710  0.66474457  0.30966491    -0.08300
C461        C  0.71970044  0.64489688  0.31769402     0.62070
H462        H  0.80596400  0.59749051  0.35027017     0.12770
H463        H  0.85843640  0.74934363  0.25054538     0.12780
C464        C  0.93845887  0.69312483  0.27231605     0.62310
F465        F  0.71687065  0.61171403  0.35862000    -0.22860
F466        F  0.70320242  0.61657865  0.27561501    -0.20190
F467        F  0.68533818  0.68512810  0.32729940    -0.19860
F468        F  0.96206870  0.64544230  0.26115309    -0.19920
F469        F  0.96538999  0.71952106  0.31017488    -0.20240
F470        F  0.94075130  0.72315572  0.22915537    -0.22910
C471        C  0.86376799  0.32233527  0.32214967    -0.05750
C472        C  0.83276521  0.35783852  0.34939435     0.00180
C473        C  0.77830740  0.35360498  0.34710313    -0.08390
C474        C  0.75633260  0.31491224  0.31545752    -0.05770
C475        C  0.78612771  0.27962715  0.28448824     0.00160
C476        C  0.84223153  0.28105606  0.29192950    -0.08300
C477        C  0.88166351  0.24035879  0.27308038     0.62070
H478        H  0.90586059  0.32659816  0.32583032     0.12770
H479        H  0.71438525  0.31320028  0.31332882     0.12780
C480        C  0.74356060  0.39121915  0.37676368     0.62310
F481        F  0.92529610  0.23924624  0.30436892    -0.22860
F482        F  0.89896711  0.25322230  0.22560212    -0.20190
F483        F  0.86165137  0.18995904  0.27310394    -0.19860
F484        F  0.75447546  0.44258156  0.36333228    -0.19920
F485        F  0.75279163  0.38571231  0.42785565    -0.20240
F486        F  0.69087810  0.38177301  0.36775420    -0.22910
C487        C  0.26715924  0.79073293  0.66307963    -0.05750
C488        C  0.28475258  0.78457481  0.71391480     0.00180
C489        C  0.33288480  0.81276474  0.72664074    -0.08390
C490        C  0.35415262  0.84802165  0.69114103    -0.05770
C491        C  0.32868696  0.86022308  0.64610079     0.00160
C492        C  0.28372305  0.83185412  0.63215663    -0.08300
C493        C  0.25042031  0.84774477  0.58726460     0.62070
H494        H  0.23983490  0.76445219  0.64563633     0.12770
H495        H  0.39048069  0.86869703  0.69908186     0.12780
C496        C  0.36369532  0.80860452  0.77618320     0.62310
F497        F  0.20221593  0.82257428  0.58684996    -0.22860
F498        F  0.27580555  0.83516192  0.54298194    -0.20190
F499        F  0.24127284  0.90150290  0.58940845    -0.19860
F500        F  0.38563812  0.75932638  0.78042025    -0.19920
F501        F  0.33234801  0.81971334  0.81692448    -0.20240
F502        F  0.40497981  0.84413591  0.77919667    -0.22910
C503        C  0.63806663  0.17548856  0.32822448    -0.05750
C504        C  0.66871700  0.14794885  0.36295811     0.00180
C505        C  0.72246025  0.15851303  0.36594253    -0.08390
C506        C  0.74480759  0.19024098  0.32881528    -0.05770
C507        C  0.71584659  0.21407090  0.28890573     0.00160
C508        C  0.65960748  0.21333659  0.29535049    -0.08300
C509        C  0.61946856  0.25227475  0.27483985     0.62070
H510        H  0.59602357  0.16945907  0.32901387     0.12770
H511        H  0.78669960  0.19483266  0.32997502     0.12780
C512        C  0.75654071  0.13403963  0.40644927     0.62310
F513        F  0.58199421  0.26249540  0.31123831    -0.22860
F514        F  0.59394035  0.23081294  0.23333376    -0.20190
F515        F  0.63994812  0.30071434  0.26320670    -0.19860
F516        F  0.75288419  0.07967621  0.40331451    -0.19920
F517        F  0.74000564  0.15092050  0.45353270    -0.20240
F518        F  0.80872803  0.14798391  0.40171453    -0.22910
C519        C  0.70772537  0.15054124  0.64960070    -0.05750
C520        C  0.65451572  0.16366752  0.65118435     0.00180
C521        C  0.63617165  0.18951010  0.69542273    -0.08390
C522        C  0.67262031  0.20664522  0.73224425    -0.05770
C523        C  0.72711962  0.20775510  0.72325880     0.00160
C524        C  0.74431185  0.16913678  0.68613351    -0.08300
C525        C  0.79955227  0.14687539  0.68281804     0.62070
H526        H  0.72063822  0.12545672  0.61881574     0.12770
H527        H  0.65773316  0.22057698  0.76786099     0.12780
C528        C  0.57876566  0.20062845  0.70378555     0.62310
F529        F  0.81231063  0.12121374  0.72666254    -0.22860
F530        F  0.83525983  0.18593647  0.67394542    -0.20190
F531        F  0.80456096  0.11022567  0.64393702    -0.19860
F532        F  0.55213639  0.15345631  0.70839558    -0.19920
F533        F  0.55943799  0.22859334  0.66342925    -0.20240
F534        F  0.57010123  0.23038660  0.74710884    -0.22910
C535        C  0.33571399  0.23213469  0.71568247    -0.05750
C536        C  0.28157033  0.21884778  0.71236309     0.00180
C537        C  0.27061372  0.17696943  0.67640245    -0.08390
C538        C  0.31069505  0.14054790  0.66450278    -0.05770
C539        C  0.36359503  0.15069901  0.67593295     0.00160
C540        C  0.37625746  0.19872260  0.70079417    -0.08300
C541        C  0.43214173  0.21512006  0.71346640     0.62070
H542        H  0.34776064  0.26954285  0.73111329     0.12770
H543        H  0.30138534  0.10728085  0.63981703     0.12780
C544        C  0.22580473  0.17541232  0.63811235     0.62310
F545        F  0.43470049  0.25778449  0.74662825    -0.22860
F546        F  0.45749607  0.22946745  0.66989959    -0.20190
F547        F  0.45759486  0.17375492  0.73620558    -0.19860
F548        F  0.19122518  0.21658844  0.64268365    -0.19920
F549        F  0.19897469  0.12815313  0.64150851    -0.20240
F550        F  0.24641276  0.17798701  0.59000551    -0.22910
C551        C  0.66268732  0.82684172  0.36520841    -0.05750
C552        C  0.63360268  0.85951674  0.33388237     0.00180
C553        C  0.64442213  0.86028593  0.28244079    -0.08390
C554        C  0.68364433  0.82706527  0.26375076    -0.05770
C555        C  0.71369073  0.79097691  0.29360310     0.00160
C556        C  0.70324390  0.79334601  0.34768791    -0.08300
C557        C  0.72953821  0.76547735  0.39207034     0.62070
H558        H  0.65351626  0.82816242  0.40516862     0.12770
H559        H  0.68804356  0.82623204  0.22335463     0.12780
C560        C  0.61258854  0.89429715  0.24699020     0.62310
F561        F  0.69271868  0.73507080  0.41657437    -0.22860
F562        F  0.74795078  0.80335566  0.42600806    -0.20190
F563        F  0.77100095  0.73382220  0.38099843    -0.19860
F564        F  0.61888278  0.94685125  0.26029071    -0.19920
F565        F  0.56017735  0.88084462  0.25025473    -0.20240
F566        F  0.62766056  0.88800246  0.19719135    -0.22910
C567        C  0.26645974  0.80500529  0.31765569    -0.05750
C568        C  0.29432457  0.77793862  0.27868955     0.00180
C569        C  0.35159210  0.78303493  0.28195711    -0.08390
C570        C  0.37390823  0.80589300  0.32600322    -0.05770
C571        C  0.34535019  0.83039452  0.36421904     0.00160
C572        C  0.29015387  0.83131663  0.35920563    -0.08300
C573        C  0.25542658  0.85843184  0.39784797     0.62070
H574        H  0.22418840  0.80338657  0.31640155     0.12770
H575        H  0.41580062  0.80553234  0.33116283     0.12780
C576        C  0.39296797  0.76905505  0.24186598     0.62310
F577        F  0.20306475  0.85686610  0.38405728    -0.22860
F578        F  0.26978804  0.91085534  0.40323870    -0.20190
F579        F  0.26018764  0.83340496  0.44351621    -0.19860
F580        F  0.38608722  0.80031158  0.20030661    -0.19920
F581        F  0.39272922  0.71627963  0.22946523    -0.20240
F582        F  0.44393725  0.77924387  0.25755621    -0.22910
loop_ 
_geom_bond_atom_site_label_1 
_geom_bond_atom_site_label_2 
_geom_bond_distance 
_geom_bond_site_symmetry_2 
_ccdc_geom_bond_type 
O1           Mg3   2.128   1_545  S
O1           Mg9   2.134   1_545  S
O1           C36   1.241       .  S
C2           O15   1.240       .  S
C2           O39   1.274       .  A
C2           H41   1.081   1_545  S
Mg3          O32   2.138       .  S
Mg3          O47   2.314       .  S
Mg3          O43   2.278       .  S
Mg3          O14   2.303       .  S
O4          Mg46   2.132       .  S
O4          Mg29   2.119       .  S
O4           C25   1.240       .  S
O5           C36   1.275       .  A
O5          Mg29   2.309       .  S
C6            O8   1.273       .  A
C6           O20   1.277       .  A
C6          C552   1.478       .  S
O7           C35   1.272       .  A
O7           Mg9   2.299       .  S
O8          Mg40   2.267       .  S
Mg9          O15   2.128   1_565  S
Mg9          O23   2.242       .  S
Mg9          O11   2.321   1_565  S
C10          O48   1.272       .  A
C10          O16   1.280       .  A
C10         C504   1.479       .  S
O11          C18   1.275       .  A
H12          C25   1.081       .  S
C13          O27   1.240   1_565  S
C13          O28   1.273       .  A
C13          H38   1.081       .  S
O14          C37   1.273       .  A
O15         Mg29   2.117       .  S
O16         Mg46   2.338       .  S
C17          O30   1.277       .  A
C17          O22   1.275       .  A
C17         C520   1.506       .  S
C18          O45   1.269       .  A
C18         C539   1.495       .  S
Mg19         O26   2.127   1_545  S
Mg19         O27   2.134       .  S
Mg19         O20   2.322   1_545  S
Mg19         O21   2.299       .  S
Mg19         O48   2.253       .  S
O21          C25   1.273       .  A
O22         Mg29   2.320       .  S
O23          C42   1.270       .  A
O24          C44   1.281       .  A
O24         Mg40   2.319       .  S
O26         Mg40   2.132       .  S
O26          C37   1.239       .  S
O27         Mg46   2.125       .  S
O28         Mg40   2.302       .  S
Mg29         O45   2.250       .  S
O30         Mg46   2.286       .  S
H31          C36   1.081       .  S
O32         Mg40   2.114       .  S
O32          C35   1.239       .  S
H33          C35   1.081       .  S
H34          C37   1.082   1_545  S
O39         Mg46   2.308       .  S
C42          O47   1.275       .  A
C42         C491   1.480       .  S
O43          C44   1.271       .  A
C44         C571   1.507       .  S
O49         Mg51   2.118   1_655  S
O49         Mg57   2.131       .  S
O49          C84   1.239       .  S
C50          O63   1.239       .  S
C50          O87   1.272       .  A
C50          H89   1.081       .  S
Mg51         O80   2.117   1_455  S
Mg51         O95   2.318   1_455  S
Mg51         O91   2.249       .  S
Mg51         O62   2.311       .  S
O52         Mg94   2.128   1_455  S
O52         Mg77   2.125   1_455  S
O52          C73   1.240       .  S
O53          C84   1.272       .  A
O53         Mg77   2.297       .  S
C54          O56   1.272       .  A
C54          O68   1.276       .  A
C54         C392   1.483       .  S
O55          C83   1.272       .  A
O55         Mg57   2.304       .  S
O56         Mg88   2.227       .  S
Mg57         O63   2.110       .  S
Mg57         O71   2.242       .  S
Mg57         O59   2.305       .  S
C58          O96   1.274       .  A
C58          O64   1.275       .  A
C58         C408   1.507       .  S
O59          C66   1.274       .  A
H60          C73   1.081       .  S
C61          O75   1.238       .  S
C61          O76   1.272       .  A
C61          H86   1.081   1_455  S
O62          C85   1.275       .  A
O63         Mg77   2.133       .  S
O64         Mg94   2.310   1_455  S
C65          O78   1.275       .  A
C65          O70   1.274       .  A
C65         C456   1.490       .  S
C66          O93   1.269       .  A
C66         C472   1.468       .  S
Mg67         O74   2.142       .  S
Mg67         O75   2.137       .  S
Mg67         O68   2.332       .  S
Mg67         O69   2.305       .  S
Mg67         O96   2.285       .  S
O69          C73   1.274       .  A
O70         Mg77   2.308       .  S
O71          C90   1.269       .  A
O72          C92   1.277       .  A
O72         Mg88   2.331       .  S
O74         Mg88   2.124       .  S
O74          C85   1.240       .  S
O75         Mg94   2.113   1_455  S
O76         Mg88   2.300       .  S
Mg77         O93   2.244       .  S
O78         Mg94   2.275       .  S
H79          C84   1.081   1_455  S
O80         Mg88   2.115   1_655  S
O80          C83   1.239       .  S
H81          C83   1.081       .  S
H82          C85   1.081       .  S
O87         Mg94   2.296       .  S
C90          O95   1.276       .  A
C90         C424   1.476       .  S
O91          C92   1.269       .  A
C92         C443   1.484       .  S
O97         Mg99   2.121       .  S
O97        Mg105   2.125       .  S
O97         C132   1.239       .  S
C98         O111   1.239       .  S
C98         O135   1.273       .  A
C98         H137   1.081       .  S
Mg99        O128   2.127       .  S
Mg99        O143   2.356       .  S
Mg99        O139   2.247       .  S
Mg99        O110   2.306       .  S
O100       Mg142   2.130       .  S
O100       Mg125   2.106       .  S
O100        C121   1.240       .  S
O101        C132   1.273       .  A
O101       Mg125   2.305   1_554  S
C102        O104   1.276       .  A
C102        O116   1.275       .  A
C102        C328   1.496       .  S
O103        C131   1.273       .  A
O103       Mg105   2.303       .  S
O104       Mg136   2.259       .  S
Mg105       O111   2.116   1_554  S
Mg105       O119   2.230       .  S
Mg105       O107   2.309       .  S
C106        O144   1.275       .  A
C106        O112   1.271       .  A
C106        C376   1.497       .  S
O107        C114   1.273       .  A
H108        C121   1.081       .  S
C109        O123   1.239       .  S
C109        O124   1.273       .  A
C109        H134   1.081       .  S
O110        C133   1.273       .  A
O111       Mg125   2.126       .  S
O112       Mg142   2.293       .  S
C113        O126   1.272       .  A
C113        O118   1.269       .  A
C113        C315   1.495       .  S
C114        O141   1.267       .  A
C114        C299   1.466       .  S
Mg115       O122   2.139       .  S
Mg115       O123   2.129       .  S
Mg115       O116   2.330       .  S
Mg115       O117   2.302       .  S
Mg115       O144   2.270       .  S
O117        C121   1.273       .  A
O118       Mg125   2.288       .  S
O119        C138   1.268       .  A
O120        C140   1.281       .  A
O120       Mg136   2.356   1_554  S
O122       Mg136   2.122       .  S
O122        C133   1.239   1_556  S
O123       Mg142   2.117       .  S
O124       Mg136   2.303       .  S
Mg125       O141   2.239   1_556  S
O126       Mg142   2.263       .  S
H127        C132   1.081       .  S
O128       Mg136   2.135   1_554  S
O128        C131   1.240       .  S
H129        C131   1.081   1_556  S
H130        C133   1.081       .  S
O135       Mg142   2.301       .  S
C138        O143   1.281       .  A
C138        C363   1.486       .  S
O139        C140   1.272       .  A
C140        C344   1.490       .  S
O145       Mg147   2.107   1_465  S
O145       Mg153   2.137       .  S
O145        C180   1.239       .  S
C146        O159   1.239       .  S
C146        O183   1.273       .  A
C146        H185   1.081   1_565  S
Mg147       O176   2.141   1_655  S
Mg147       O191   2.298   1_655  S
Mg147       O187   2.231       .  S
Mg147       O158   2.292       .  S
O148       Mg190   2.142   1_655  S
O148       Mg173   2.132   1_655  S
O148        C169   1.240       .  S
O149        C180   1.271       .  A
O149       Mg173   2.296   1_556  S
C150        O152   1.271       .  A
C150        O164   1.277       .  A
C150        C219   1.505       .  S
O151        C179   1.273       .  A
O151       Mg153   2.298   1_545  S
O152       Mg184   2.283   1_554  S
Mg153       O159   2.129   1_556  S
Mg153       O167   2.279   1_565  S
Mg153       O155   2.291       .  S
C154        O192   1.269       .  A
C154        O160   1.283       .  A
C154        C280   1.477       .  S
O155        C162   1.275       .  A
H156        C169   1.081       .  S
C157        O171   1.240       .  S
C157        O172   1.274       .  A
C157        H182   1.081       .  S
O158        C181   1.270       .  A
O159       Mg173   2.142       .  S
O160       Mg190   2.354   1_655  S
C161        O174   1.277       .  A
C161        O166   1.277       .  A
C161        C203   1.485       .  S
C162        O189   1.273       .  A
C162        C251   1.488       .  S
Mg163       O170   2.103   1_564  S
Mg163       O171   2.134   1_565  S
Mg163       O164   2.305   1_565  S
Mg163       O165   2.301       .  S
Mg163       O192   2.235       .  S
O165        C169   1.274       .  A
O166       Mg173   2.309       .  S
O167        C186   1.272       .  A
O168        C188   1.275       .  A
O168       Mg184   2.311       .  S
O170       Mg184   2.130       .  S
O170        C181   1.238       .  S
O171       Mg190   2.130   1_645  S
O172       Mg184   2.305   1_554  S
Mg173       O189   2.283   1_554  S
O174       Mg190   2.295       .  S
H175        C180   1.081       .  S
O176       Mg184   2.128   1_455  S
O176        C179   1.239       .  S
H177        C179   1.081       .  S
H178        C181   1.081   1_565  S
O183       Mg190   2.301       .  S
C186        O191   1.274       .  A
C186        C232   1.476       .  S
O187        C188   1.270       .  A
C188        C264   1.475       .  S
C193        C283   1.604       .  S
C193        C360   1.609       .  S
C193        C459   1.594       .  S
C193        C555   1.610       .  S
C194        C267   1.574       .  S
C194        C331   1.596       .  S
C194        C427   1.606       .  S
C194        C523   1.618       .  S
C195        C248   1.595       .  S
C195        C312   1.569       .  S
C195        C395   1.592       .  S
C195        C488   1.602       .  S
C196        C235   1.598       .  S
C196        C379   1.586       .  S
C196        C440   1.595       .  S
C196        C536   1.609       .  S
C197        C216   1.598       .  S
C197        C347   1.611       .  S
C197        C475   1.597       .  S
C197        C507   1.592       .  S
C198        C200   1.618       .  S
C198        C296   1.576       .  S
C198        C411   1.604       .  S
C198        C568   1.620       .  S
C199        H206   1.072       .  S
C199        C200   1.422       .  A
C199        C204   1.414       .  A
C200        C201   1.465       .  A
C201        C208   1.534       .  S
C201        C202   1.408       .  A
C202        H207   1.083       .  S
C202        C203   1.386       .  A
C203        C204   1.410       .  A
C204        C205   1.518       .  S
C205        F209   1.384       .  S
C205        F210   1.383       .  S
C205        F211   1.382       .  S
C208        F212   1.369       .  S
C208        F213   1.380       .  S
C208        F214   1.386       .  S
C215        H222   1.079       .  S
C215        C216   1.424       .  A
C215        C220   1.410       .  A
C216        C217   1.463       .  A
C217        C224   1.541       .  S
C217        C218   1.415       .  A
C218        H223   1.079       .  S
C218        C219   1.397       .  A
C219        C220   1.415       .  A
C220        C221   1.521       .  S
C221        F225   1.385       .  S
C221        F226   1.384       .  S
C221        F227   1.383       .  S
C224        F228   1.374       .  S
C224        F229   1.378       .  S
C224        F230   1.386       .  S
C231        H238   1.085       .  S
C231        C232   1.396       .  A
C231        C236   1.411       .  A
C232        C233   1.404       .  A
C233        C240   1.520       .  S
C233        C234   1.407       .  A
C234        H239   1.052       .  S
C234        C235   1.415       .  A
C235        C236   1.448       .  A
C236        C237   1.531       .  S
C237        F241   1.387       .  S
C237        F242   1.377       .  S
C237        F243   1.379       .  S
C240        F244   1.383       .  S
C240        F245   1.383       .  S
C240        F246   1.383       .  S
C247        H254   1.073       .  S
C247        C248   1.419       .  A
C247        C252   1.408       .  A
C248        C249   1.437       .  A
C249        C256   1.522       .  S
C249        C250   1.406       .  A
C250        H255   1.085       .  S
C250        C251   1.399       .  A
C251        C252   1.417       .  A
C252        C253   1.521       .  S
C253        F257   1.385       .  S
C253        F258   1.382       .  S
C253        F259   1.382       .  S
C256        F260   1.375       .  S
C256        F261   1.379       .  S
C256        F262   1.387       .  S
C263        H270   1.082       .  S
C263        C264   1.390       .  A
C263        C268   1.412       .  A
C264        C265   1.404       .  A
C265        C272   1.520       .  S
C265        C266   1.402       .  A
C266        H271   1.081       .  S
C266        C267   1.428       .  A
C267        C268   1.456       .  A
C268        C269   1.527       .  S
C269        F273   1.376       .  S
C269        F274   1.382       .  S
C269        F275   1.369       .  S
C272        F276   1.382       .  S
C272        F277   1.383       .  S
C272        F278   1.385       .  S
C279        H286   1.086       .  S
C279        C280   1.381       .  A
C279        C284   1.402       .  A
C280        C281   1.412       .  A
C281        C288   1.518       .  S
C281        C282   1.413       .  A
C282        H287   1.077       .  S
C282        C283   1.423       .  A
C283        C284   1.457       .  A
C284        C285   1.520       .  S
C285        F289   1.386       .  S
C285        F290   1.353       .  S
C285        F291   1.383       .  S
C288        F292   1.383       .  S
C288        F293   1.383       .  S
C288        F294   1.384       .  S
C295        H302   1.081       .  S
C295        C296   1.431       .  A
C295        C300   1.398       .  A
C296        C297   1.459       .  A
C297        C304   1.534       .  S
C297        C298   1.415       .  A
C298        H303   1.086       .  S
C298        C299   1.395       .  A
C299        C300   1.394       .  A
C300        C301   1.518       .  S
C301        F305   1.384       .  S
C301        F306   1.379       .  S
C301        F307   1.384       .  S
C304        F308   1.364       .  S
C304        F309   1.383       .  S
C304        F310   1.386       .  S
C311        H318   1.073       .  S
C311        C312   1.421       .  A
C311        C316   1.404       .  A
C312        C313   1.445       .  A
C313        C320   1.529       .  S
C313        C314   1.408       .  A
C314        H319   1.084       .  S
C314        C315   1.401       .  A
C315        C316   1.418       .  A
C316        C317   1.521       .  S
C317        F321   1.385       .  S
C317        F322   1.382       .  S
C317        F323   1.384       .  S
C320        F324   1.383       .  S
C320        F325   1.369       .  S
C320        F326   1.385       .  S
C327        H334   1.086       .  S
C327        C328   1.393       .  A
C327        C332   1.401       .  A
C328        C329   1.420       .  A
C329        C336   1.518       .  S
C329        C330   1.416       .  A
C330        H335   1.083       .  S
C330        C331   1.421       .  A
C331        C332   1.454       .  A
C332        C333   1.536       .  S
C333        F337   1.368       .  S
C333        F338   1.387       .  S
C333        F339   1.382       .  S
C336        F340   1.382       .  S
C336        F341   1.383       .  S
C336        F342   1.385       .  S
C343        H350   1.084       .  S
C343        C344   1.401       .  A
C343        C348   1.421       .  A
C344        C345   1.406       .  A
C345        C352   1.528       .  S
C345        C346   1.401       .  A
C346        H351   1.071       .  S
C346        C347   1.435       .  A
C347        C348   1.448       .  A
C348        C349   1.521       .  S
C349        F353   1.385       .  S
C349        F354   1.368       .  S
C349        F355   1.381       .  S
C352        F356   1.383       .  S
C352        F357   1.384       .  S
C352        F358   1.385       .  S
C359        H366   1.070       .  S
C359        C360   1.433       .  A
C359        C364   1.401       .  A
C360        C361   1.456       .  A
C361        C368   1.532       .  S
C361        C362   1.421       .  A
C362        H367   1.083       .  S
C362        C363   1.397       .  A
C363        C364   1.405       .  A
C364        C365   1.528       .  S
C365        F369   1.385       .  S
C365        F370   1.384       .  S
C365        F371   1.382       .  S
C368        F372   1.381       .  S
C368        F373   1.371       .  S
C368        F374   1.386       .  S
C375        H382   1.085       .  S
C375        C376   1.403       .  A
C375        C380   1.407       .  A
C376        C377   1.419       .  A
C377        C384   1.525       .  S
C377        C378   1.406       .  A
C378        H383   1.075       .  S
C378        C379   1.421       .  A
C379        C380   1.451       .  A
C380        C381   1.536       .  S
C381        F385   1.384       .  S
C381        F386   1.375       .  S
C381        F387   1.383       .  S
C384        F388   1.383       .  S
C384        F389   1.383       .  S
C384        F390   1.385       .  S
C391        H398   1.085       .  S
C391        C392   1.395       .  A
C391        C396   1.393       .  A
C392        C393   1.423       .  A
C393        C400   1.515       .  S
C393        C394   1.418       .  A
C394        H399   1.083       .  S
C394        C395   1.412       .  A
C395        C396   1.440       .  A
C396        C397   1.530       .  S
C397        F401   1.385       .  S
C397        F402   1.371       .  S
C397        F403   1.382       .  S
C400        F404   1.381       .  S
C400        F405   1.383       .  S
C400        F406   1.384       .  S
C407        H414   1.084       .  S
C407        C408   1.405       .  A
C407        C412   1.419       .  A
C408        C409   1.412       .  A
C409        C416   1.520       .  S
C409        C410   1.398       .  A
C410        H415   1.061       .  S
C410        C411   1.425       .  A
C411        C412   1.451       .  A
C412        C413   1.519       .  S
C413        F417   1.382       .  S
C413        F418   1.368       .  S
C413        F419   1.385       .  S
C416        F420   1.384       .  S
C416        F421   1.382       .  S
C416        F422   1.386       .  S
C423        H430   1.082       .  S
C423        C424   1.399       .  A
C423        C428   1.420       .  A
C424        C425   1.403       .  A
C425        C432   1.521       .  S
C425        C426   1.401       .  A
C426        H431   1.069       .  S
C426        C427   1.425       .  A
C427        C428   1.448       .  A
C428        C429   1.529       .  S
C429        F433   1.385       .  S
C429        F434   1.367       .  S
C429        F435   1.379       .  S
C432        F436   1.384       .  S
C432        F437   1.382       .  S
C432        F438   1.385       .  S
C439        H446   1.073       .  S
C439        C440   1.428       .  A
C439        C444   1.403       .  A
C440        C441   1.455       .  A
C441        C448   1.532       .  S
C441        C442   1.417       .  A
C442        H447   1.082       .  S
C442        C443   1.395       .  A
C443        C444   1.403       .  A
C444        C445   1.520       .  S
C445        F449   1.385       .  S
C445        F450   1.380       .  S
C445        F451   1.383       .  S
C448        F452   1.378       .  S
C448        F453   1.374       .  S
C448        F454   1.385       .  S
C455        H462   1.083       .  S
C455        C456   1.402       .  A
C455        C460   1.422       .  A
C456        C457   1.399       .  A
C457        C464   1.515       .  S
C457        C458   1.392       .  A
C458        H463   1.065       .  S
C458        C459   1.426       .  A
C459        C460   1.453       .  A
C460        C461   1.526       .  S
C461        F465   1.385       .  S
C461        F466   1.381       .  S
C461        F467   1.371       .  S
C464        F468   1.383       .  S
C464        F469   1.377       .  S
C464        F470   1.386       .  S
C471        H478   1.084       .  S
C471        C472   1.398       .  A
C471        C476   1.416       .  A
C472        C473   1.396       .  A
C473        C480   1.520       .  S
C473        C474   1.395       .  A
C474        H479   1.073       .  S
C474        C475   1.431       .  A
C475        C476   1.446       .  A
C476        C477   1.527       .  S
C477        F481   1.386       .  S
C477        F482   1.380       .  S
C477        F483   1.375       .  S
C480        F484   1.384       .  S
C480        F485   1.383       .  S
C480        F486   1.385       .  S
C487        H494   1.062       .  S
C487        C488   1.429       .  A
C487        C492   1.402       .  A
C488        C489   1.455       .  A
C489        C496   1.532       .  S
C489        C490   1.417       .  A
C490        H495   1.082       .  S
C490        C491   1.396       .  A
C491        C492   1.398       .  A
C492        C493   1.519       .  S
C493        F497   1.384       .  S
C493        F498   1.379       .  S
C493        F499   1.385       .  S
C496        F500   1.379       .  S
C496        F501   1.375       .  S
C496        F502   1.385       .  S
C503        H510   1.084       .  S
C503        C504   1.402       .  A
C503        C508   1.418       .  A
C504        C505   1.399       .  A
C505        C512   1.520       .  S
C505        C506   1.403       .  A
C506        H511   1.076       .  S
C506        C507   1.431       .  A
C507        C508   1.448       .  A
C508        C509   1.530       .  S
C509        F513   1.386       .  S
C509        F514   1.379       .  S
C509        F515   1.373       .  S
C512        F516   1.383       .  S
C512        F517   1.383       .  S
C512        F518   1.385       .  S
C519        H526   1.082       .  S
C519        C520   1.402       .  A
C519        C524   1.416       .  A
C520        C521   1.418       .  A
C521        C528   1.512       .  S
C521        C522   1.408       .  A
C522        H527   1.076       .  S
C522        C523   1.414       .  A
C523        C524   1.450       .  A
C524        C525   1.525       .  S
C525        F529   1.379       .  S
C525        F530   1.368       .  S
C525        F531   1.385       .  S
C528        F532   1.381       .  S
C528        F533   1.383       .  S
C528        F534   1.385       .  S
C535        H542   1.071       .  S
C535        C536   1.424       .  A
C535        C540   1.397       .  A
C536        C537   1.442       .  A
C537        C544   1.525       .  S
C537        C538   1.416       .  A
C538        H543   1.085       .  S
C538        C539   1.405       .  A
C539        C540   1.412       .  A
C540        C541   1.519       .  S
C541        F545   1.385       .  S
C541        F546   1.380       .  S
C541        F547   1.381       .  S
C544        F548   1.376       .  S
C544        F549   1.383       .  S
C544        F550   1.385       .  S
C551        H558   1.087       .  S
C551        C552   1.396       .  A
C551        C556   1.419       .  A
C552        C553   1.394       .  A
C553        C560   1.520       .  S
C553        C554   1.401       .  A
C554        H559   1.078       .  S
C554        C555   1.440       .  A
C555        C556   1.461       .  A
C556        C557   1.535       .  S
C557        F561   1.385       .  S
C557        F562   1.385       .  S
C557        F563   1.363       .  S
C560        F564   1.383       .  S
C560        F565   1.384       .  S
C560        F566   1.385       .  S
C567        H574   1.081       .  S
C567        C568   1.428       .  A
C567        C572   1.411       .  A
C568        C569   1.470       .  A
C569        C576   1.542       .  S
C569        C570   1.412       .  A
C570        H575   1.078       .  S
C570        C571   1.393       .  A
C571        C572   1.416       .  A
C572        C573   1.519       .  S
C573        F577   1.385       .  S
C573        F578   1.383       .  S
C573        F579   1.381       .  S
C576        F580   1.378       .  S
C576        F581   1.374       .  S
C576        F582   1.386       .  S
