geometry optimzed in LAMMPS
_audit_creation_date              2020-12-01 
_audit_creation_method            'lammps2cif' 
_symmetry_space_group_name_H-M    'P1' 
_symmetry_Int_Tables_number       1 
_symmetry_cell_setting            triclinic 
loop_ 
_symmetry_equiv_pos_as_xyz 
  x,y,z 
_cell_length_a                    51.09442235 
_cell_length_b                    50.971782200068816 
_cell_length_c                    50.458916654550116 
_cell_angle_alpha                 89.8557169420537 
_cell_angle_beta                  89.8943351703699 
_cell_angle_gamma                 90.19418425537219 
loop_ 
_atom_site_label 
_atom_site_type_symbol 
_atom_site_fract_x 
_atom_site_fract_y 
_atom_site_fract_z 
_atom_site_charge 
C1          C  0.16528810  0.82509559  0.52569132     0.03800
C2          C  0.14336886  0.84152849  0.52464465    -0.12400
C3          C  0.13492953  0.85204077  0.50037986     0.01300
C4          C  0.14823752  0.84560694  0.47688583    -0.10900
C5          C  0.16997451  0.82885364  0.47748212     0.03800
C6          C  0.17860850  0.81911782  0.50204601    -0.10300
H7          H  0.13369431  0.84732410  0.54283885     0.09300
H8          H  0.14217756  0.85438182  0.45830439     0.06900
H9          H  0.19659389  0.80802989  0.50291313     0.06700
C10         C  0.98993898  0.03353566  0.52755590     0.03800
C11         C  0.00649844  0.01178352  0.52542094    -0.12400
C12         C  0.01504262  0.00317862  0.50041809     0.01300
C13         C  0.00723319  0.01674010  0.47745281    -0.10900
C14         C  0.99087235  0.03875000  0.47933018     0.03800
C15         C  0.98290650  0.04730513  0.50453914    -0.10300
H16         H  0.01238249  0.00124024  0.54310119     0.09300
H17         H  0.01379051  0.01003100  0.45819508     0.06900
H18         H  0.97146959  0.06503161  0.50645740     0.06700
C19         C  0.96238326  0.84285502  0.51885212     0.03800
C20         C  0.98490720  0.85883971  0.52056057    -0.12400
C21         C  0.99815590  0.86682342  0.49732334     0.01300
C22         C  0.98898662  0.85855707  0.47244445    -0.10900
C23         C  0.96701058  0.84216748  0.47058844     0.03800
C24         C  0.95367185  0.83489072  0.49380946    -0.10300
H25         H  0.99180866  0.86572272  0.53958339     0.09300
H26         H  0.99912735  0.86473152  0.45458971     0.06900
H27         H  0.93607949  0.82304014  0.49238173     0.06700
C28         C  0.54955414  0.82981730  0.09827898     0.03800
C29         C  0.57338803  0.82029771  0.10854108    -0.12400
C30         C  0.59762010  0.82950574  0.09878512     0.01300
C31         C  0.59785229  0.84881098  0.07885316    -0.10900
C32         C  0.57432945  0.85841575  0.06829756     0.03800
C33         C  0.55034660  0.84897252  0.07818247    -0.10300
H34         H  0.57322527  0.80668312  0.12499503     0.09300
H35         H  0.61633490  0.85636947  0.07146189     0.06900
H36         H  0.53224637  0.85672882  0.07024699     0.06700
C37         C  0.97790750  0.39832331  0.09279563     0.03800
C38         C  0.99818325  0.39999706  0.07411256    -0.12400
C39         C  0.00434962  0.42408043  0.06198237     0.01300
C40         C  0.99061792  0.44685809  0.06926281    -0.10900
C41         C  0.97110090  0.44574492  0.08892992     0.03800
C42         C  0.96457859  0.42126790  0.10013374    -0.10300
H43         H  0.00886629  0.38249853  0.06859341     0.09300
H44         H  0.99564941  0.46547690  0.06014133     0.06900
H45         H  0.94915044  0.42002353  0.11480164     0.06700
C46         C  0.98212545  0.39992198  0.89635318     0.03800
C47         C  0.00155419  0.40135091  0.91585997    -0.12400
C48         C  0.01192077  0.42572761  0.92350264     0.01300
C49         C  0.00339135  0.44872121  0.91088985    -0.10900
C50         C  0.98430162  0.44759234  0.89098724     0.03800
C51         C  0.97379674  0.42308464  0.88379497    -0.10300
H52         H  0.00816912  0.38359932  0.92560766     0.09300
H53         H  0.01144798  0.46750527  0.91682229     0.06900
H54         H  0.95976753  0.42186834  0.86779128     0.06700
C55         C  0.54830508  0.02963167  0.90446293     0.03800
C56         C  0.54759441  0.00794893  0.92178853    -0.12400
C57         C  0.57084236  0.99446450  0.92798331     0.01300
C58         C  0.59463947  0.00247453  0.91641128    -0.10900
C59         C  0.59557136  0.02436305  0.89953231     0.03800
C60         C  0.57226649  0.03759186  0.89359207    -0.10300
H61         H  0.52936438  0.00212645  0.93111851     0.09300
H62         H  0.61254904  0.99227555  0.92141763     0.06900
H63         H  0.57254165  0.05397026  0.87986617     0.06700
C64         C  0.17474205  0.40004832  0.90130432     0.03800
C65         C  0.15325033  0.40219058  0.91836372    -0.12400
C66         C  0.14759908  0.42615433  0.93069534     0.01300
C67         C  0.16324258  0.44835443  0.92546070    -0.10900
C68         C  0.18443842  0.44663675  0.90763316     0.03800
C69         C  0.18983907  0.42245355  0.89570228    -0.10300
H70         H  0.14143831  0.38502572  0.92282635     0.09300
H71         H  0.15903871  0.46648148  0.93569385     0.06900
H72         H  0.20585557  0.42118453  0.88166578     0.06700
C73         C  0.55211208  0.82590549  0.90266278     0.03800
C74         C  0.57599672  0.81949112  0.89031091    -0.12400
C75         C  0.59954213  0.83199643  0.89767742     0.01300
C76         C  0.59880267  0.85146495  0.91728347    -0.10900
C77         C  0.57519625  0.85773053  0.92999514     0.03800
C78         C  0.55204809  0.84473492  0.92286511    -0.10300
H79         H  0.57621613  0.80482284  0.87491790     0.09300
H80         H  0.61661759  0.86161760  0.92289171     0.06900
H81         H  0.53386431  0.84979333  0.93267697     0.06700
C82         C  0.09703686  0.32777155  0.39986591     0.03800
C83         C  0.09441190  0.34850625  0.41779940    -0.12400
C84         C  0.06991861  0.35445591  0.42884114     0.01300
C85         C  0.04761114  0.34016325  0.42113333    -0.10900
C86         C  0.04995609  0.31967671  0.40266942     0.03800
C87         C  0.07464024  0.31363171  0.39228244    -0.10300
H88         H  0.11157582  0.35942550  0.42400337     0.09300
H89         H  0.02882193  0.34448523  0.43006082     0.06900
H90         H  0.07618362  0.29809630  0.37776161     0.06700
O91         O  0.34462410  0.17935829  0.20663755    -0.87700
C92         C  0.38454303  0.16703486  0.27561350     0.88300
Mg93       Mg  0.32101280  0.21323687  0.19918031     1.58100
O94         O  0.32793321  0.12853593  0.26848099    -0.87400
O95         O  0.34028748  0.13653906  0.20743554    -0.74800
C96         C  0.25117901  0.22661845  0.30914414     0.93400
O97         O  0.37090348  0.22218720  0.24479423    -0.74600
O98         O  0.26043660  0.24082037  0.29058061    -0.82100
Mg99       Mg  0.38360813  0.18606675  0.22108669     1.58000
C100        C  0.27474767  0.12308954  0.33066104     0.93300
O101        O  0.40052394  0.15220336  0.19671793    -0.80400
H102        H  0.30689002  0.10239529  0.24804790    -0.05700
C103        C  0.32048318  0.19563574  0.31150988     0.88200
O104        O  0.28400097  0.19064161  0.21096670    -0.74900
O105        O  0.37532171  0.16057582  0.25394982    -0.87600
O106        O  0.29864434  0.11746624  0.32583348    -0.80400
C107        C  0.37905202  0.09574116  0.30348829     0.93400
C108        C  0.40607799  0.12796938  0.19899736     0.93300
Mg109      Mg  0.27341423  0.16890470  0.28665630     1.58000
O110        O  0.25676064  0.20244079  0.31130552    -0.80400
O111        O  0.28563774  0.13253437  0.26293176    -0.74600
O112        O  0.38398879  0.10229153  0.27955285    -0.80400
O113        O  0.39307302  0.21367688  0.18701978    -0.82200
O114        O  0.27263101  0.25045621  0.22915021    -0.80500
C115        C  0.30695208  0.12020377  0.25964064     0.87700
O116        O  0.28194396  0.19370945  0.25413689    -0.87600
O117        O  0.31224781  0.17509382  0.30143821    -0.87700
O118        O  0.31732487  0.21784835  0.30047045    -0.74800
Mg119      Mg  0.36187917  0.12164519  0.24447682     1.58000
O120        O  0.35976353  0.10513824  0.31629779    -0.82200
H121        H  0.32640481  0.15961975  0.17784131    -0.05900
O122        O  0.32850457  0.22568794  0.23929651    -0.87400
H123        H  0.34934178  0.25217027  0.25949392    -0.05700
H124        H  0.25390706  0.17622185  0.23290808    -0.05900
C125        C  0.34945205  0.23430950  0.24798308     0.87700
C126        C  0.33694472  0.15870937  0.19637746     0.88300
C127        C  0.27230965  0.18675262  0.23282810     0.88300
H128        H  0.33134967  0.19457552  0.32984391    -0.05900
O129        O  0.37247431  0.16251664  0.29719278    -0.74900
Mg130      Mg  0.29520394  0.23251860  0.26368519     1.58000
H131        H  0.40301932  0.17741933  0.27615778    -0.05900
C132        C  0.38022474  0.23274770  0.17727296     0.93300
O133        O  0.29411693  0.24795885  0.19071540    -0.82100
C134        C  0.27519186  0.25641098  0.20477534     0.93300
O135        O  0.39689672  0.11378059  0.21766485    -0.82100
Mg136      Mg  0.33470459  0.14049785  0.30873666     1.58200
O137        O  0.35612281  0.23647461  0.18258244    -0.80400
O138        O  0.26348979  0.14258457  0.32017293    -0.82100
C139        C  0.47405871  0.94714424  0.40441021     0.03800
C140        C  0.46242879  0.92373749  0.39565365    -0.12400
C141        C  0.47090346  0.89926001  0.40511405     0.01300
C142        C  0.49080033  0.89842463  0.42425085    -0.10900
C143        C  0.50292598  0.92169575  0.43283574     0.03800
C144        C  0.49477458  0.94595842  0.42253693    -0.10300
H145        H  0.44660310  0.92464635  0.38145805     0.09300
H146        H  0.49719286  0.87972038  0.43213259     0.06900
H147        H  0.50409678  0.96389024  0.42920818     0.06700
O148        O  0.32029048  0.62683987  0.23708340    -0.87700
C149        C  0.32658492  0.69077804  0.18906026     0.88300
Mg150      Mg  0.28678608  0.61980923  0.26163672     1.58100
O151        O  0.36437940  0.69327151  0.24688050    -0.87400
O152        O  0.36269798  0.63114960  0.24123527    -0.74800
C153        C  0.26222373  0.73231910  0.32227535     0.93400
O154        O  0.27478297  0.65740371  0.20595673    -0.74600
O155        O  0.25106933  0.71252438  0.31198638    -0.82100
Mg156      Mg  0.31283115  0.63576112  0.19598317     1.58000
C157        C  0.36708588  0.76029142  0.29267975     0.93300
O158        O  0.34892140  0.61303915  0.18129047    -0.80400
H159        H  0.39153524  0.67780760  0.27066746    -0.05700
C160        C  0.29461980  0.73215792  0.25052375     0.88200
O161        O  0.30733513  0.63777924  0.29778863    -0.74900
O162        O  0.33525759  0.67107929  0.20037523    -0.87600
O163        O  0.37091929  0.75252763  0.26899412    -0.80400
C164        C  0.39624502  0.72452463  0.19118119     0.93400
C165        C  0.37288769  0.61692679  0.17532256     0.93300
Mg166      Mg  0.32276055  0.71553745  0.30099885     1.58000
O167        O  0.28619663  0.73809384  0.31756821    -0.80400
O168        O  0.36063669  0.69359424  0.29020177    -0.74600
O169        O  0.39161547  0.69996598  0.18979199    -0.80400
O170        O  0.28794456  0.59904152  0.19047280    -0.82200
O171        O  0.24487960  0.65096751  0.30610269    -0.80500
C172        C  0.37309227  0.68802597  0.26912299     0.87700
O173        O  0.30058208  0.68017939  0.29599200    -0.87600
O174        O  0.31572428  0.72476177  0.25979943    -0.87700
O175        O  0.27353497  0.71945913  0.25443104    -0.74800
Mg176      Mg  0.37444762  0.66655210  0.21550648     1.58000
O177        O  0.38501765  0.73909919  0.20822519    -0.82200
H178        H  0.34175386  0.60170286  0.25829581    -0.05900
O179        O  0.27174439  0.65733277  0.24924563    -0.87400
H180        H  0.24373092  0.67212672  0.22605890    -0.05700
H181        H  0.31938356  0.66320000  0.32616998    -0.05900
C182        C  0.26245803  0.66238520  0.22721939     0.87700
C183        C  0.34144332  0.61896850  0.24581239     0.88300
C184        C  0.30918873  0.66063868  0.30759346     0.88300
H185        H  0.29426094  0.74939695  0.23800545    -0.05900
O186        O  0.32871918  0.71358656  0.19898730    -0.74900
Mg187      Mg  0.26180812  0.68406240  0.28009329     1.58000
H188        H  0.31612557  0.68841375  0.17060896    -0.05900
C189        C  0.26956708  0.58982258  0.20486655     0.93300
O190        O  0.25177440  0.61170613  0.28817422    -0.82100
C191        C  0.24055490  0.62637123  0.30506126     0.93300
O192        O  0.38535791  0.63723126  0.18300899    -0.82100
Mg193      Mg  0.34965172  0.73117815  0.23516522     1.58200
O194        O  0.26582942  0.59746572  0.22855534    -0.80400
O195        O  0.34799905  0.75197344  0.30672082    -0.82100
O196        O  0.84239520  0.18164231  0.29644044    -0.87700
C197        C  0.88184058  0.18043219  0.22681886     0.88300
Mg198      Mg  0.81970614  0.14875516  0.30987909     1.58100
O199        O  0.82405665  0.21760616  0.22686265    -0.87400
O200        O  0.83712051  0.22334804  0.28779286    -0.74800
C201        C  0.74745110  0.11188789  0.20693075     0.93400
O202        O  0.86978898  0.13316627  0.26766515    -0.74600
O203        O  0.75871850  0.10241799  0.22727519    -0.82100
Mg204      Mg  0.88194373  0.17361347  0.28401746     1.58000
C205        C  0.77159237  0.21303242  0.16532604     0.93300
O206        O  0.89821207  0.21276196  0.30104376    -0.80400
H207        H  0.80256085  0.24655536  0.24220434    -0.05700
C208        C  0.81627450  0.14378318  0.19646916     0.88200
O209        O  0.78167181  0.16710473  0.29446285    -0.74900
O210        O  0.87327898  0.19173839  0.24667696    -0.87600
O211        O  0.79575731  0.21676708  0.17004932    -0.80400
C212        C  0.87380874  0.24541309  0.18472922     0.93400
C213        C  0.90257911  0.23622142  0.29309267     0.93300
Mg214      Mg  0.76876622  0.17407254  0.21591296     1.58000
O215        O  0.75147941  0.13539294  0.19896768    -0.80400
O216        O  0.78156112  0.21413675  0.23247149    -0.74600
O217        O  0.87912848  0.24471601  0.20944701    -0.80400
O218        O  0.89200913  0.15298104  0.32293585    -0.82200
O219        O  0.77217406  0.10244400  0.28943193    -0.80500
C220        C  0.80286338  0.22702991  0.23389220     0.87700
O221        O  0.77790811  0.15548961  0.25286472    -0.87600
O222        O  0.80813931  0.16559128  0.20311482    -0.87700
O223        O  0.81412182  0.12397550  0.21159218    -0.74800
Mg224      Mg  0.85793304  0.23103703  0.24805555     1.58000
O225        O  0.85556983  0.23168062  0.17474834    -0.82200
H226        H  0.82417133  0.20579558  0.32152915    -0.05900
O227        O  0.82724717  0.12950770  0.27276163    -0.87400
H228        H  0.84908169  0.10052407  0.25796764    -0.05700
H229        H  0.75033947  0.17612936  0.27159484    -0.05900
C230        C  0.84857039  0.12013102  0.26607202     0.87700
C231        C  0.83438537  0.20355973  0.30289256     0.88300
C232        C  0.76901056  0.16628995  0.27284161     0.88300
H233        H  0.82630638  0.14173336  0.17770846    -0.05900
O234        O  0.86897581  0.17934971  0.20531973    -0.74900
Mg235      Mg  0.79342546  0.11628338  0.25119272     1.58000
H236        H  0.90037683  0.17034499  0.22809823    -0.05900
C237        C  0.87916701  0.13524483  0.33521351     0.93300
O238        O  0.79560026  0.11437725  0.32463995    -0.82100
C239        C  0.77745518  0.10088436  0.31409948     0.93300
O240        O  0.89258510  0.24532185  0.27190852    -0.82100
Mg241      Mg  0.83112645  0.19804439  0.18986657     1.58200
O242        O  0.85523329  0.13044083  0.33018942    -0.80400
O243        O  0.75825431  0.19551558  0.17739576    -0.82100
C244        C  0.66758293  0.94771306  0.39756368     0.03800
C245        C  0.67530674  0.92427325  0.38520147    -0.12400
C246        C  0.66541017  0.89983113  0.39367861     0.01300
C247        C  0.64712195  0.89912695  0.41446693    -0.10900
C248        C  0.63903111  0.92239029  0.42686439     0.03800
C249        C  0.64914001  0.94660517  0.41817800    -0.10300
H250        H  0.68812251  0.92523090  0.36814589     0.09300
H251        H  0.63908064  0.88049712  0.42101277     0.06900
H252        H  0.64265564  0.96455599  0.42756422     0.06700
O253        O  0.82154094  0.69312255  0.29338184    -0.87700
C254        C  0.81785216  0.72794874  0.22101286     0.88300
Mg255      Mg  0.85383838  0.66989232  0.30590677     1.58100
O256        O  0.77853855  0.67167468  0.22798283    -0.87400
O257        O  0.77916626  0.68865716  0.28857449    -0.74800
C258        C  0.88092786  0.59094396  0.20490553     0.93400
O259        O  0.86883409  0.71636557  0.25856100    -0.74600
O260        O  0.89153475  0.60243248  0.22447512    -0.82100
Mg261      Mg  0.83060685  0.73113656  0.27713707     1.58000
C262        C  0.77931656  0.61459556  0.16845262     0.93300
O263        O  0.79465731  0.74991568  0.29598549    -0.80400
H264        H  0.75048489  0.65138645  0.24671803    -0.05700
C265        C  0.85004375  0.66062217  0.19291652     0.88200
O266        O  0.83233899  0.63201820  0.29434375    -0.74900
O267        O  0.80859437  0.72066355  0.24247154    -0.87600
O268        O  0.77371007  0.63877810  0.17188012    -0.80400
C269        C  0.74888721  0.71997477  0.18596339     0.93400
C270        C  0.77075701  0.75520523  0.29140655     0.93300
Mg271      Mg  0.82042723  0.61494797  0.21713252     1.58000
O272        O  0.85739860  0.59573254  0.19787415    -0.80400
O273        O  0.78170414  0.62939320  0.23567274    -0.74600
O274        O  0.75265873  0.72711062  0.20995824    -0.80400
O275        O  0.85486917  0.74320728  0.31328830    -0.82200
O276        O  0.89505691  0.61909672  0.28531631    -0.80500
C277        C  0.76933190  0.65098637  0.23695523     0.87700
O278        O  0.84103119  0.62550832  0.25230448    -0.87600
O279        O  0.82840883  0.65319753  0.20106791    -0.87700
O280        O  0.87062519  0.65816346  0.20679970    -0.74800
Mg281      Mg  0.76871534  0.70757774  0.24863958     1.58000
O282        O  0.76052032  0.70033607  0.17589012    -0.82200
H283        H  0.79885205  0.67718177  0.32147857    -0.05900
O284        O  0.87063168  0.67422480  0.26711170    -0.87400
H285        H  0.89967312  0.69337242  0.24872336    -0.05700
H286        H  0.82008284  0.60004769  0.27390399    -0.05900
C287        C  0.88066670  0.69449039  0.25809595     0.87700
C288        C  0.79994931  0.68626468  0.30212066     0.88300
C289        C  0.83103129  0.61823122  0.27344108     0.88300
H290        H  0.85137562  0.67008509  0.17375991    -0.05900
O291        O  0.81591479  0.71409715  0.20020001    -0.74900
Mg292      Mg  0.88049493  0.63896334  0.24689064     1.58000
H293        H  0.82858547  0.74624628  0.22011648    -0.05900
C294        C  0.87287343  0.73034764  0.32489879     0.93300
O295        O  0.88715892  0.64455870  0.32021190    -0.82100
C296        C  0.89819757  0.62485594  0.30970681     0.93300
O297        O  0.75808224  0.74459810  0.27242895    -0.82100
Mg298      Mg  0.79496416  0.67573084  0.18886120     1.58200
O299        O  0.87577183  0.70579343  0.32157595    -0.80400
O300        O  0.79768869  0.60341181  0.18100455    -0.82100
C301        C  0.09303231  0.51831729  0.40178472     0.03800
C302        C  0.06925972  0.52900416  0.39291910    -0.12400
C303        C  0.04520122  0.52065919  0.40361180     0.01300
C304        C  0.04509342  0.50189250  0.42397874    -0.10900
C305        C  0.06863050  0.49063266  0.43261993     0.03800
C306        C  0.09248672  0.49869704  0.42131567    -0.10300
H307        H  0.06940350  0.54367292  0.37740545     0.09300
H308        H  0.02669752  0.49537765  0.43251245     0.06900
H309        H  0.11059291  0.48982806  0.42793429     0.06700
C310        C  0.48601884  0.31781566  0.97458693     0.03800
C311        C  0.47922232  0.30712071  0.99943572    -0.12400
C312        C  0.48823099  0.31847669  0.02310041     0.01300
C313        C  0.50511941  0.34011374  0.02183758    -0.10900
C314        C  0.51226555  0.35097044  0.99730243     0.03800
C315        C  0.50272957  0.33978140  0.97374198    -0.10300
H316        H  0.46775511  0.28928200  0.00050711     0.09300
H317        H  0.51270827  0.34861470  0.03994770     0.06900
H318        H  0.50867533  0.34795453  0.95480969     0.06700
O319        O  0.36911682  0.15099530  0.74788347    -0.87700
C320        C  0.29716214  0.11758979  0.73875322     0.88300
Mg321      Mg  0.37973001  0.17059352  0.78400203     1.58100
O322        O  0.30502796  0.17751809  0.70523468    -0.87400
O323        O  0.36468072  0.16056077  0.70574072    -0.74800
C324        C  0.27882656  0.24660043  0.81408508     0.93400
O325        O  0.33292941  0.12215614  0.79117012    -0.74600
O326        O  0.29667127  0.23273455  0.82446691    -0.82100
Mg327      Mg  0.35265845  0.11223773  0.75152955     1.58000
C328        C  0.24706402  0.23423173  0.70725267     0.93300
O329        O  0.37273827  0.09688765  0.71298629    -0.80400
H330        H  0.32378591  0.19967899  0.67847451    -0.05700
C331        C  0.26699677  0.18147790  0.77569037     0.88200
O332        O  0.36858511  0.21052109  0.76595420    -0.74900
O333        O  0.31861727  0.12546285  0.73045951    -0.87600
O334        O  0.25065219  0.21019172  0.70130940    -0.80400
C335        C  0.26403007  0.13178478  0.67067197     0.93400
C336        C  0.36639918  0.09444590  0.68861335     0.93300
Mg337      Mg  0.29287204  0.22987350  0.75113564     1.58000
O338        O  0.27325209  0.24537456  0.78946268    -0.80400
O339        O  0.31238069  0.21939107  0.71141661    -0.74600
O340        O  0.28773638  0.12493722  0.67445001    -0.80400
O341        O  0.38745516  0.09814564  0.77552705    -0.82200
O342        O  0.35547497  0.21575400  0.82860881    -0.80500
C343        C  0.31388989  0.19876994  0.69741339     0.87700
O344        O  0.32642878  0.21595156  0.77236545    -0.87600
O345        O  0.27628103  0.19125774  0.75529910    -0.87700
O346        O  0.28001128  0.18028457  0.79703448    -0.74800
Mg347      Mg  0.32533141  0.14297950  0.69237938     1.58000
O348        O  0.25368039  0.15084377  0.68287466    -0.82200
H349        H  0.39687649  0.16987994  0.72730494    -0.05900
O350        O  0.34020917  0.16398593  0.79767700    -0.87400
H351        H  0.32146714  0.14158593  0.82424190    -0.05700
H352        H  0.34893136  0.24345789  0.75544293    -0.05900
C353        C  0.33141161  0.14264994  0.80533666     0.87700
C354        C  0.37783671  0.16056752  0.72710304     0.88300
C355        C  0.34789185  0.22424783  0.76452401     0.88300
H356        H  0.24772951  0.17267458  0.77499716    -0.05900
O357        O  0.27670748  0.13171106  0.73765892    -0.74900
Mg358      Mg  0.31912675  0.19777997  0.81029392     1.58000
H359        H  0.29592772  0.09842226  0.74790232    -0.05900
C360        C  0.39826544  0.10796538  0.79597066     0.93300
O361        O  0.39198588  0.19312736  0.82151896    -0.82100
C362        C  0.37951560  0.21143115  0.83314084     0.93300
O363        O  0.34764899  0.10730847  0.67840177    -0.82100
Mg364      Mg  0.26589147  0.17185770  0.71975975     1.58200
O365        O  0.39492145  0.13189018  0.80269060    -0.80400
O366        O  0.25812872  0.24476728  0.72717356    -0.82100
C367        C  0.47987081  0.94638048  0.60129769     0.03800
C368        C  0.47163024  0.92249657  0.61260567    -0.12400
C369        C  0.48126214  0.89837024  0.60330641     0.01300
C370        C  0.49973439  0.89837941  0.58268808    -0.10900
C371        C  0.50828069  0.92207912  0.57127117     0.03800
C372        C  0.49850921  0.94601372  0.58082474    -0.10300
H373        H  0.45853378  0.92282286  0.62947074     0.09300
H374        H  0.50751904  0.87996661  0.57548011     0.06900
H375        H  0.50534063  0.96429204  0.57219580     0.06700
O376        O  0.30259791  0.62831096  0.75963620    -0.87700
C377        C  0.26398806  0.69672922  0.74464117     0.88300
Mg378      Mg  0.32596250  0.62187658  0.79419729     1.58100
O379        O  0.31989676  0.68793554  0.70528025    -0.87400
O380        O  0.30748845  0.62787054  0.71639190    -0.74800
C381        C  0.40081364  0.72858296  0.80101538     0.93400
O382        O  0.27807595  0.66929720  0.80087235    -0.74600
O383        O  0.39109859  0.71090701  0.81597479    -0.82100
Mg384      Mg  0.26422662  0.64431610  0.76578790     1.58000
C385        C  0.37276391  0.74902744  0.69599188     0.93300
O386        O  0.24623683  0.61891095  0.73299671    -0.80400
H387        H  0.33978935  0.66726188  0.67837917    -0.05700
C388        C  0.33032757  0.73265551  0.77132646     0.88200
O389        O  0.36326255  0.63164344  0.77036194    -0.74900
O390        O  0.27313745  0.67512223  0.73868983    -0.87600
O391        O  0.34858832  0.74387450  0.69235620    -0.80400
C392        C  0.26753611  0.72155169  0.67243689     0.93400
C393        C  0.24098685  0.61995854  0.70835691     0.93300
Mg394      Mg  0.37588469  0.70622077  0.74365670     1.58000
O395        O  0.39448093  0.73072301  0.77672918    -0.80400
O396        O  0.36224622  0.68218492  0.70786443    -0.74600
O397        O  0.26428012  0.69774869  0.67954709    -0.80400
O398        O  0.25379744  0.61293848  0.79536813    -0.82200
O399        O  0.37649067  0.65096575  0.82929084    -0.80500
C400        C  0.34048382  0.67897011  0.69620272     0.87700
O401        O  0.36699933  0.67447471  0.77031884    -0.87600
O402        O  0.33726986  0.72163032  0.75067518    -0.87700
O403        O  0.33397023  0.72237736  0.79400328    -0.74800
Mg404      Mg  0.28608663  0.66392743  0.69985017     1.58000
O405        O  0.28649813  0.73551965  0.68091897    -0.82200
H406        H  0.32092148  0.59922566  0.74075193    -0.05900
O407        O  0.32025942  0.66249168  0.80455220    -0.87400
H408        H  0.30042553  0.68478620  0.83014480    -0.05700
H409        H  0.39363424  0.65123811  0.75335534    -0.05900
C410        C  0.29973546  0.67238179  0.81281004     0.87700
C411        C  0.31044621  0.61755293  0.73915344     0.88300
C412        C  0.37554822  0.65258026  0.76441499     0.88300
H413        H  0.32024734  0.75122635  0.77001145    -0.05900
O414        O  0.27614705  0.71791706  0.73964832    -0.74900
Mg415      Mg  0.35492515  0.68553121  0.80964201     1.58000
H416        H  0.24559745  0.69754784  0.75523237    -0.05900
C417        C  0.26580568  0.60354233  0.81523599     0.93300
O418        O  0.35231020  0.61444246  0.82965373    -0.82100
C419        C  0.37223253  0.62753717  0.83714016     0.93300
O420        O  0.25086944  0.63735651  0.69316673    -0.82100
Mg421      Mg  0.31331920  0.72823263  0.71637017     1.58200
O422        O  0.29023736  0.60742134  0.81896772    -0.80400
O423        O  0.38567887  0.73927319  0.71515019    -0.82100
C424        C  0.10032369  0.51539413  0.59952408     0.03800
C425        C  0.09908775  0.49659295  0.57931639    -0.12400
C426        C  0.07479088  0.48669975  0.57090127     0.01300
C427        C  0.05159436  0.49601481  0.58241539    -0.10900
C428        C  0.05242745  0.51539729  0.60206149     0.03800
C429        C  0.07690062  0.52471445  0.61066644    -0.10300
H430        H  0.11695162  0.48948404  0.57026098     0.09300
H431        H  0.03290393  0.48838997  0.57576313     0.06900
H432        H  0.07779996  0.53937273  0.62605174     0.06700
C433        C  0.10065208  0.32013371  0.59413130     0.03800
C434        C  0.07752871  0.30629390  0.60010721    -0.12400
C435        C  0.05327220  0.31409745  0.58964246     0.01300
C436        C  0.05246023  0.33553554  0.57225284    -0.10900
C437        C  0.07531550  0.34975097  0.56635004     0.03800
C438        C  0.09928800  0.34230038  0.57766037    -0.10300
H439        H  0.07847494  0.28937095  0.61301039     0.09300
H440        H  0.03403499  0.34134985  0.56342621     0.06900
H441        H  0.11693069  0.35319014  0.57285782     0.06700
O442        O  0.77968436  0.18191074  0.77006883    -0.87700
C443        C  0.84954383  0.18468431  0.80803678     0.88300
Mg444      Mg  0.76625414  0.14785656  0.74944138     1.58100
O445        O  0.84729446  0.21947320  0.74806713    -0.87400
O446        O  0.78703264  0.22351561  0.76203095    -0.74800
C447        C  0.86719777  0.11206503  0.67399028     0.93400
O448        O  0.81105425  0.13554818  0.79813783    -0.74600
O449        O  0.84673733  0.10273038  0.68499608    -0.82100
Mg450      Mg  0.79415416  0.17586786  0.80944818     1.58000
C451        C  0.90710026  0.21435912  0.69449953     0.93300
O452        O  0.77664221  0.21457378  0.82506581    -0.80400
H453        H  0.83188405  0.24782436  0.72559984    -0.05700
C454        C  0.87804645  0.14583856  0.74255069     0.88200
O455        O  0.77988275  0.16570092  0.70967837    -0.74900
O456        O  0.82962869  0.19469927  0.79858935    -0.87600
O457        O  0.90259809  0.21911238  0.71878364    -0.80400
C458        C  0.88843280  0.24943730  0.79726477     0.93400
C459        C  0.78337823  0.23848877  0.82834266     0.93300
Mg460      Mg  0.85772680  0.17445532  0.69408645     1.58000
O461        O  0.87509033  0.13551694  0.67813160    -0.80400
O462        O  0.84113315  0.21478533  0.70534117    -0.74600
O463        O  0.86390423  0.24812938  0.80175211    -0.80400
O464        O  0.75745137  0.15509131  0.82204347    -0.82200
O465        O  0.78524833  0.10215810  0.70066232    -0.80500
C466        C  0.84008649  0.22831596  0.72643430     0.87700
O467        O  0.82132122  0.15567495  0.70481779    -0.87600
O468        O  0.87119135  0.16748361  0.73396001    -0.87700
O469        O  0.86345258  0.12569764  0.74063670    -0.74800
Mg470      Mg  0.82632551  0.23332473  0.78178565     1.58000
O471        O  0.89932420  0.23591977  0.77923044    -0.82200
H472        H  0.75392286  0.20444403  0.75090223    -0.05900
O473        O  0.80355869  0.12971660  0.75573121    -0.87400
H474        H  0.82045886  0.10229515  0.77828000    -0.05700
H475        H  0.80134558  0.17531197  0.67714771    -0.05900
C476        C  0.81175581  0.12157603  0.77729476     0.87700
C477        C  0.77258222  0.20323222  0.76089234     0.88300
C478        C  0.80098706  0.16569589  0.69626762     0.88300
H479        H  0.89665235  0.14415259  0.75257064    -0.05900
O480        O  0.87075986  0.18344117  0.79501537    -0.74900
Mg481      Mg  0.82388555  0.11663632  0.72084809     1.58000
H482        H  0.84853369  0.17573333  0.82746117    -0.05900
C483        C  0.74473047  0.13635014  0.81164659     0.93300
O484        O  0.75162728  0.11290101  0.72668872    -0.82100
C485        C  0.76117649  0.10013521  0.70738969     0.93300
O486        O  0.80323733  0.24837966  0.81681772    -0.82100
Mg487      Mg  0.88444647  0.20108224  0.75563817     1.58200
O488        O  0.74800255  0.12959503  0.78751743    -0.80400
O489        O  0.89549127  0.19596081  0.68206670    -0.82100
C490        C  0.67167137  0.95226236  0.59466347     0.03800
C491        C  0.68118637  0.92925262  0.60659897    -0.12400
C492        C  0.67273211  0.90433443  0.59824924     0.01300
C493        C  0.65398097  0.90262857  0.57801481    -0.10900
C494        C  0.64432046  0.92544025  0.56578031     0.03800
C495        C  0.65349958  0.95017813  0.57393736    -0.10300
H496        H  0.69523937  0.93082105  0.62251435     0.09300
H497        H  0.64675032  0.88359210  0.57183504     0.06900
H498        H  0.64595609  0.96776617  0.56461083     0.06700
O499        O  0.78486542  0.69889952  0.74595382    -0.87700
C500        C  0.85440200  0.73797000  0.74511328     0.88300
Mg501      Mg  0.77414176  0.67413489  0.77877043     1.58100
O502        O  0.85242796  0.68247159  0.70408771    -0.87400
O503        O  0.79188056  0.69504009  0.70330701    -0.74800
C504        C  0.87842714  0.60107476  0.80515292     0.93400
O505        O  0.81633663  0.72413168  0.79453179    -0.74600
O506        O  0.85919774  0.61251562  0.81608716    -0.82100
Mg507      Mg  0.79797887  0.73812601  0.75535122     1.58000
C508        C  0.91291775  0.62992287  0.70128286     0.93300
O509        O  0.77903229  0.75712775  0.71762241    -0.80400
H510        H  0.83594744  0.66261711  0.67431384    -0.05700
C511        C  0.88713186  0.67184076  0.77537930     0.88200
O512        O  0.78863626  0.63737250  0.75693333    -0.74900
O513        O  0.83399182  0.72991624  0.73467278    -0.87600
O514        O  0.90829311  0.65431964  0.69845422    -0.80400
C515        C  0.89151604  0.73548371  0.67688616     0.93400
C516        C  0.78663227  0.76251627  0.69403628     0.93300
Mg517      Mg  0.86598307  0.62528912  0.74398460     1.58000
O518        O  0.88519150  0.60577379  0.78117602    -0.80400
O519        O  0.84729352  0.63977178  0.70519096    -0.74600
O520        O  0.86712214  0.73960525  0.68018866    -0.80400
O521        O  0.76088934  0.74702515  0.77930838    -0.82200
O522        O  0.79863075  0.62487355  0.81967947    -0.80500
C523        C  0.84512680  0.66181268  0.69358526     0.87700
O524        O  0.83063886  0.63377094  0.76517428    -0.87600
O525        O  0.87968223  0.66419478  0.75342364    -0.87700
O526        O  0.87310459  0.66908957  0.79598013    -0.74800
Mg527      Mg  0.83044325  0.71674196  0.69438378     1.58000
O528        O  0.90297081  0.71604391  0.68753626    -0.82200
H529        H  0.75941349  0.68107788  0.72187155    -0.05900
O530        O  0.81219270  0.68134250  0.79539108    -0.87400
H531        H  0.82777518  0.70143459  0.82549978    -0.05700
H532        H  0.81095570  0.60710453  0.74405641    -0.05900
C533        C  0.81888100  0.70210513  0.80608621     0.87700
C534        C  0.77776474  0.69151829  0.72377318     0.88300
C535        C  0.81022701  0.62515240  0.75524077     0.88300
H536        H  0.90562472  0.68209513  0.77688295    -0.05900
O537        O  0.87587751  0.72551759  0.74334791    -0.74900
Mg538      Mg  0.83479239  0.64747272  0.80519706     1.58000
H539        H  0.85378282  0.75574390  0.75674136    -0.05900
C540        C  0.75053179  0.73315823  0.79764769     0.93300
O541        O  0.76174751  0.64706711  0.81307446    -0.82100
C542        C  0.77425850  0.62816391  0.82363675     0.93300
O543        O  0.80659947  0.75189573  0.68367175    -0.82100
Mg544      Mg  0.89034087  0.68896188  0.72100128     1.58200
O545        O  0.75584701  0.70892672  0.80069926    -0.80400
O546        O  0.90228007  0.61619766  0.71953447    -0.82100
C547        C  0.47458969  0.51706196  0.97933211     0.03800
C548        C  0.49308014  0.49680874  0.97841430    -0.12400
C549        C  0.50542604  0.48812659  0.00166290     0.01300
C550        C  0.49881537  0.49937963  0.02615926    -0.10900
C551        C  0.47959504  0.51892755  0.02760937     0.03800
C552        C  0.46783468  0.52783374  0.00405485    -0.10300
H553        H  0.49849066  0.48828901  0.95952808     0.09300
H554        H  0.50854138  0.49278669  0.04403465     0.06900
H555        H  0.45331879  0.54317951  0.00503041     0.06700
C556        C  0.67778174  0.33035959  0.97665346     0.03800
C557        C  0.66049049  0.35156980  0.97678888    -0.12400
C558        C  0.64743144  0.35860494  0.00017151     0.01300
C559        C  0.65254160  0.34494407  0.02389935    -0.10900
C560        C  0.67100689  0.32457542  0.02435938     0.03800
C561        C  0.68315455  0.31721043  0.00048265    -0.10300
H562        H  0.65602161  0.36167853  0.95842742     0.09300
H563        H  0.64211361  0.35013743  0.04184557     0.06900
H564        H  0.69655428  0.30082297  0.00023451     0.06700
C565        C  0.66551224  0.52976533  0.97062124     0.03800
C566        C  0.67447832  0.53971439  0.99494577    -0.12400
C567        C  0.66728512  0.52794010  0.01908057     0.01300
C568        C  0.65017661  0.50637847  0.01891066    -0.10900
C569        C  0.64086394  0.49621035  0.99482715     0.03800
C570        C  0.64844432  0.50807500  0.97076296    -0.10300
H571        H  0.68638883  0.55730951  0.99526900     0.09300
H572        H  0.64405626  0.49749780  0.03746316     0.06900
H573        H  0.64094249  0.50046199  0.95222721     0.06700
C574        C  0.55056001  0.02255725  0.09701925     0.03800
C575        C  0.57434717  0.03390531  0.10511920    -0.13600
C576        C  0.59822256  0.02628753  0.09365339     0.01300
C577        C  0.59814852  0.00719964  0.07369200    -0.10900
C578        C  0.57455595  0.99536012  0.06578806     0.03800
C579        C  0.55088858  0.00304473  0.07754288    -0.10300
H580        H  0.57435688  0.04864948  0.12049661     0.09300
H581        H  0.61641421  0.00116686  0.06464923     0.06900
H582        H  0.53273177  0.99385114  0.07139330     0.06700
C583        C  0.16926548  0.39546973  0.09658098     0.03800
C584        C  0.14946859  0.39664404  0.07745718    -0.12400
C585        C  0.14063727  0.42096689  0.06805195     0.01300
C586        C  0.15164384  0.44426529  0.07780730    -0.10900
C587        C  0.17138498  0.44349243  0.09704866     0.03800
C588        C  0.18036403  0.41896978  0.10598413    -0.10300
H589        H  0.14122387  0.37869070  0.06952180     0.09300
H590        H  0.14497736  0.46297125  0.07015240     0.06900
H591        H  0.19691290  0.41806450  0.11927204     0.06700
C592        C  0.18115895  0.01293171  0.52507386     0.03800
C593        C  0.15952988  0.99602916  0.52476906    -0.12400
C594        C  0.14983666  0.98655277  0.50059991     0.01300
C595        C  0.16201767  0.99370547  0.47668617    -0.10900
C596        C  0.18357728  0.01072957  0.47676315     0.03800
C597        C  0.19333780  0.01978273  0.50108961    -0.10300
H598        H  0.15005736  0.99045986  0.54319153     0.09300
H599        H  0.15440381  0.98636858  0.45807827     0.06900
H600        H  0.21082327  0.03184094  0.50146488     0.06700
N601        N  0.11395152  0.92228833  0.49935052    -0.36000
N602        N  0.07889083  0.96715459  0.49893036    -0.56500
N603        N  0.03419596  0.93151453  0.49748234    -0.36000
N604        N  0.06945742  0.88639910  0.49994608    -0.56500
C605        C  0.13125048  0.94183320  0.50419180     0.27600
C606        C  0.12636440  0.89941068  0.50420416     0.27600
C607        C  0.02163525  0.95462147  0.50117985     0.27600
C608        C  0.01657048  0.91195467  0.50142076     0.27600
C609        C  0.10187766  0.98012251  0.49649724     0.36200
C610        C  0.05980440  0.98513371  0.49563250     0.36200
C611        C  0.08887407  0.86859657  0.49714623     0.36200
C612        C  0.04660205  0.87337531  0.49652262     0.36200
C613        C  0.15501732  0.93124990  0.51190038    -0.21300
C614        C  0.15196566  0.90453635  0.51188520    -0.21300
C615        C  0.99552601  0.94964667  0.50692285    -0.21300
C616        C  0.99232930  0.92283800  0.50703194    -0.21300
C617        C  0.09740830  0.00653761  0.49188313    -0.22300
C618        C  0.07077322  0.00973121  0.49139524    -0.22300
C619        C  0.07831809  0.84400485  0.49237096    -0.22300
C620        C  0.05156177  0.84700298  0.49201910    -0.22300
C621        C  0.12682617  0.96889007  0.50025925    -0.17700
C622        C  0.11590188  0.87397309  0.50032405    -0.17700
C623        C  0.02129541  0.88462383  0.49867209    -0.17700
C624        C  0.03269638  0.98012202  0.49847790    -0.17700
H625        H  0.17290319  0.94163220  0.51666232     0.15200
H626        H  0.16712622  0.89053477  0.51664451     0.15200
H627        H  0.98020317  0.96383504  0.51041341     0.15200
H628        H  0.97407996  0.91259932  0.51064064     0.15200
H629        H  0.11181256  0.02200949  0.48965290     0.13500
H630        H  0.06070186  0.02818214  0.48869859     0.13500
H631        H  0.08878718  0.82577255  0.48970880     0.13500
H632        H  0.03739637  0.83146581  0.48900830     0.13500
H633        H  0.09594411  0.92429028  0.49019710     0.26800
H634        H  0.05295287  0.92925749  0.49010032     0.26800
N635        N  0.57175401  0.96668645  0.99726148    -0.36000
N636        N  0.57453000  0.92658395  0.03893434    -0.56500
N637        N  0.57345406  0.88606389  0.99880662    -0.36000
N638        N  0.57289130  0.92628561  0.95701954    -0.56500
C639        C  0.57710871  0.98190238  0.01853115     0.27600
C640        C  0.57529519  0.98166255  0.97531853     0.27600
C641        C  0.57830577  0.87121909  0.02057287     0.27600
C642        C  0.57837916  0.87109524  0.97725732     0.27600
C643        C  0.57168116  0.94809441  0.05427703     0.36200
C644        C  0.57171037  0.90552654  0.05510368     0.36200
C645        C  0.56845823  0.94717851  0.94105577     0.36200
C646        C  0.57012839  0.90465499  0.94183986     0.36200
C647        C  0.58370898  0.00697131  0.00997489    -0.21300
C648        C  0.58261208  0.00680217  0.98277913    -0.21300
C649        C  0.58603436  0.84636885  0.01272419    -0.21300
C650        C  0.58615883  0.84631081  0.98544507    -0.21300
C651        C  0.56754414  0.94062802  0.08041847    -0.22300
C652        C  0.56749693  0.91371581  0.08091964    -0.22300
C653        C  0.56313912  0.93881448  0.91552938    -0.22300
C654        C  0.56419996  0.91188450  0.91600947    -0.22300
C655        C  0.57448645  0.97437165  0.04547022    -0.17700
C656        C  0.57095133  0.97371425  0.94879250    -0.17700
C657        C  0.57448862  0.87856321  0.95044973    -0.17700
C658        C  0.57465398  0.87904360  0.04727953    -0.17700
H659        H  0.58851287  0.02384104  0.02200835     0.15200
H660        H  0.58652836  0.02344762  0.96999914     0.15200
H661        H  0.59092076  0.82987930  0.02530263     0.15200
H662        H  0.59110060  0.82973902  0.97305859     0.15200
H663        H  0.56521045  0.95320329  0.09749824     0.13500
H664        H  0.56512496  0.90160123  0.09841025     0.13500
H665        H  0.55925563  0.95086305  0.89829480     0.13500
H666        H  0.56124818  0.89911043  0.89916692     0.13500
H667        H  0.56330789  0.94817615  0.99785119     0.26800
H668        H  0.56445515  0.90425273  0.99861367     0.26800
N669        N  0.07822200  0.42674397  0.95554645    -0.36000
N670        N  0.11638460  0.42550016  0.99820061    -0.56500
N671        N  0.07375491  0.42307842  0.03683092    -0.36000
N672        N  0.03558708  0.42709107  0.99418656    -0.56500
C673        C  0.10039701  0.43154766  0.94160646     0.27600
C674        C  0.05774139  0.43138989  0.93928023     0.27600
C675        C  0.09445255  0.42589808  0.05329092     0.27600
C676        C  0.05179954  0.42732816  0.05123458     0.27600
C677        C  0.13282190  0.42259395  0.97740280     0.36200
C678        C  0.13043376  0.42002958  0.02017157     0.36200
C679        C  0.02131204  0.42423033  0.97181518     0.36200
C680        C  0.01887721  0.42374674  0.01478269     0.36200
C681        C  0.09394946  0.43922251  0.91607715    -0.21300
C682        C  0.06706447  0.43900108  0.91455478    -0.21300
C683        C  0.08551669  0.43154850  0.07860963    -0.21300
C684        C  0.05863861  0.43246825  0.07730851    -0.21300
C685        C  0.15752038  0.41562780  0.98622430    -0.22300
C686        C  0.15602636  0.41404819  0.01330425    -0.22300
C687        C  0.99528040  0.41968193  0.97829903    -0.22300
C688        C  0.99375513  0.41938709  0.00545811    -0.22300
C689        C  0.12623983  0.42719927  0.95061138    -0.17700
C690        C  0.03101606  0.42712710  0.94560478    -0.17700
C691        C  0.02571185  0.42529682  0.04192861    -0.17700
C692        C  0.12107031  0.42205497  0.04646377    -0.17700
H693        H  0.10724205  0.44395256  0.90002041     0.15200
H694        H  0.05577729  0.44355401  0.89703248     0.15200
H695        H  0.09711596  0.43444475  0.09629339     0.15200
H696        H  0.04560766  0.43625563  0.09378686     0.15200
H697        H  0.17487436  0.41219645  0.97441367     0.13500
H698        H  0.17205820  0.40925251  0.02641766     0.13500
H699        H  0.97895903  0.41712198  0.96490681     0.13500
H700        H  0.97612981  0.41633838  0.01700901     0.13500
H701        H  0.07712245  0.41758898  0.97386658     0.26800
H702        H  0.07448193  0.41581459  0.01769613     0.26800
N703        N  0.53615094  0.42116537  0.99673323    -0.36000
N704        N  0.57463694  0.46386849  0.99746668    -0.56500
N705        N  0.61687725  0.42585019  0.99575710    -0.36000
N706        N  0.57835214  0.38315219  0.99758888    -0.56500
C707        C  0.52040446  0.44160068  0.00282305     0.27600
C708        C  0.52233972  0.39882738  0.00103241     0.27600
C709        C  0.63108235  0.44817435  0.99845015     0.27600
C710        C  0.63300597  0.40533834  0.00046806     0.27600
C711        C  0.55247611  0.47817533  0.99560481     0.36200
C712        C  0.59479946  0.48065878  0.99325458     0.36200
C713        C  0.55811648  0.36651611  0.99338088     0.36200
C714        C  0.60042848  0.36882775  0.99515204     0.36200
C715        C  0.49611161  0.43212544  0.01069341    -0.21300
C716        C  0.49730725  0.40516053  0.00949571    -0.21300
C717        C  0.65680428  0.44171206  0.00424255    -0.21300
C718        C  0.65798508  0.41473764  0.00563674    -0.21300
C719        C  0.55861507  0.50423177  0.99056767    -0.22300
C720        C  0.58535422  0.50580085  0.98906557    -0.22300
C721        C  0.56739428  0.34146648  0.98844291    -0.22300
C722        C  0.59414924  0.34291069  0.98963820    -0.22300
C723        C  0.52680951  0.46854735  0.99996204    -0.17700
C724        C  0.53139409  0.37296873  0.99644910    -0.17700
C725        C  0.62620760  0.37836614  0.99888465    -0.17700
C726        C  0.62167569  0.47415693  0.99500929    -0.17700
H727        H  0.47916009  0.44345949  0.01644408     0.15200
H728        H  0.48146942  0.39178463  0.01421697     0.15200
H729        H  0.67309911  0.45501160  0.00712674     0.15200
H730        H  0.67536504  0.40334277  0.00970422     0.15200
H731        H  0.54525303  0.52053535  0.98849462     0.13500
H732        H  0.59652837  0.52357409  0.98570206     0.13500
H733        H  0.55609297  0.32382891  0.98490338     0.13500
H734        H  0.60744241  0.32664883  0.98689590     0.13500
H735        H  0.55419951  0.42243038  0.98737946     0.26800
H736        H  0.59792254  0.42462190  0.98867448     0.26800
N737        N  0.06948321  0.38011053  0.49879643    -0.36000
N738        N  0.07368801  0.41922994  0.54082505    -0.56500
N739        N  0.06951148  0.46086750  0.50119136    -0.36000
N740        N  0.06821295  0.42166982  0.45907406    -0.56500
C741        C  0.07560062  0.36450084  0.51959929     0.27600
C742        C  0.07281759  0.36576532  0.47650750     0.27600
C743        C  0.07445475  0.47547327  0.52300033     0.27600
C744        C  0.07207488  0.47676171  0.47979161     0.27600
C745        C  0.07213867  0.39743409  0.55608497     0.36200
C746        C  0.07181232  0.43995442  0.55738301     0.36200
C747        C  0.06493777  0.40088725  0.44280287     0.36200
C748        C  0.06509198  0.44340075  0.44402230     0.36200
C749        C  0.08234764  0.33978710  0.51044758    -0.21300
C750        C  0.08061277  0.34058223  0.48331923    -0.21300
C751        C  0.07956039  0.50116385  0.51537426    -0.21300
C752        C  0.07811458  0.50196013  0.48818001    -0.21300
C753        C  0.06967339  0.40431941  0.58251893    -0.22300
C754        C  0.06951267  0.43123905  0.58335455    -0.22300
C755        C  0.05994868  0.40943436  0.41722696    -0.22300
C756        C  0.06006037  0.43634285  0.41798419    -0.22300
C757        C  0.07424743  0.37140611  0.54672010    -0.17700
C758        C  0.06835665  0.37435697  0.45017672    -0.17700
C759        C  0.06826419  0.46953429  0.45294025    -0.17700
C760        C  0.07351271  0.46664311  0.54967177    -0.17700
H761        H  0.08795327  0.32286166  0.52209733     0.15200
H762        H  0.08462274  0.32435979  0.47014080     0.15200
H763        H  0.08382005  0.51772281  0.52805396     0.15200
H764        H  0.08105491  0.51923388  0.47600317     0.15200
H765        H  0.06839650  0.39131455  0.59946719     0.13500
H766        H  0.06809794  0.44302393  0.60110905     0.13500
H767        H  0.05696580  0.39753164  0.39974965     0.13500
H768        H  0.05712762  0.44921988  0.40117068     0.13500
H769        H  0.06094725  0.39849512  0.49992351     0.26800
H770        H  0.06242442  0.44182452  0.50109767     0.26800
N771        N  0.61412341  0.92095214  0.49747522    -0.36000
N772        N  0.57210951  0.92072090  0.45824218    -0.56500
N773        N  0.53337778  0.91990704  0.50090651    -0.36000
N774        N  0.57530987  0.92226733  0.54005105    -0.56500
C775        C  0.62832211  0.92485704  0.47508254     0.27600
C776        C  0.63001681  0.92579834  0.51840573     0.27600
C777        C  0.51745811  0.92389991  0.47984336     0.27600
C778        C  0.51913672  0.92439733  0.52311116     0.27600
C779        C  0.59270780  0.91814454  0.44157735     0.36200
C780        C  0.55025184  0.91785252  0.44341952     0.36200
C781        C  0.59718150  0.92025251  0.55498249     0.36200
C782        C  0.55474005  0.91943770  0.55675929     0.36200
C783        C  0.65375628  0.93161753  0.48194189    -0.21300
C784        C  0.65480439  0.93224175  0.50918006    -0.21300
C785        C  0.49266035  0.93048855  0.48881836    -0.21300
C786        C  0.49370512  0.93075353  0.51604903    -0.21300
C787        C  0.58382127  0.91392120  0.41596729    -0.22300
C788        C  0.55699350  0.91370569  0.41714648    -0.22300
C789        C  0.59041055  0.91650824  0.58135905    -0.22300
C790        C  0.56360502  0.91595208  0.58246882    -0.22300
C791        C  0.61936215  0.92144688  0.44865388    -0.17700
C792        C  0.62316426  0.92348320  0.54560648    -0.17700
C793        C  0.52805990  0.92176571  0.54959268    -0.17700
C794        C  0.52427869  0.92073445  0.45277420    -0.17700
H795        H  0.67003194  0.93554737  0.46875507     0.15200
H796        H  0.67199617  0.93675088  0.52082745     0.15200
H797        H  0.47547433  0.93453512  0.47700625     0.15200
H798        H  0.47746609  0.93502989  0.52912009     0.15200
H799        H  0.59539232  0.91171784  0.39813488     0.13500
H800        H  0.54395341  0.91125113  0.40044747     0.13500
H801        H  0.60337693  0.91475939  0.59819676     0.13500
H802        H  0.55200127  0.91371735  0.60030049     0.13500
H803        H  0.59554008  0.91299586  0.49843433     0.26800
H804        H  0.55193212  0.91198711  0.50024936     0.26800
C805        C  0.70611594  0.56793151  0.91775247     0.19300
C806        C  0.73306880  0.57262876  0.91523108    -0.18800
C807        C  0.74308795  0.58660061  0.89365898    -0.11000
C808        C  0.72636191  0.59637502  0.87385852     0.21600
C809        C  0.69928673  0.59204005  0.87647415    -0.20400
C810        C  0.68920596  0.57781671  0.89812815    -0.11200
C811        C  0.73674191  0.61260754  0.85150315    -0.15400
C812        C  0.76133045  0.60977786  0.84227569    -0.29200
C813        C  0.69679873  0.55424914  0.94212063    -0.03500
C814        C  0.67330021  0.54242864  0.94509910    -0.40000
H815        H  0.74651692  0.56570930  0.93026538     0.12700
H816        H  0.76392043  0.59040975  0.89310372     0.12400
H817        H  0.68591445  0.59979683  0.86180631     0.11800
H818        H  0.66824202  0.57526073  0.89975908     0.12000
H819        H  0.72418173  0.62759541  0.84304467     0.14800
H820        H  0.77339176  0.59395556  0.84984087     0.13500
H821        H  0.71070975  0.55311031  0.95833040     0.11200
H822        H  0.65997716  0.54105541  0.92843533     0.13200
C823        C  0.73880332  0.81479293  0.66759084     0.19300
C824        C  0.71154398  0.81745930  0.66554517    -0.18800
C825        C  0.70065735  0.83760860  0.65014504    -0.11000
C826        C  0.71695868  0.85567599  0.63681105     0.21600
C827        C  0.74417097  0.85317372  0.63926365    -0.20400
C828        C  0.75499176  0.83299082  0.65436769    -0.11200
C829        C  0.70664370  0.87861923  0.62195382    -0.15400
C830        C  0.68247930  0.88004810  0.61135714    -0.29200
C831        C  0.75018975  0.79359315  0.68425034    -0.03500
C832        C  0.77296252  0.78218987  0.67769022    -0.40000
H833        H  0.69867813  0.80391388  0.67585226     0.12700
H834        H  0.67958381  0.83939838  0.64937421     0.12400
H835        H  0.75716944  0.86708819  0.62963278     0.11800
H836        H  0.77607398  0.83211231  0.65620670     0.12000
H837        H  0.72006784  0.89494743  0.61908029     0.14800
H838        H  0.66975376  0.86295668  0.61166262     0.13500
H839        H  0.73957729  0.78704326  0.70174585     0.11200
H840        H  0.78241099  0.78756639  0.65913728     0.13200
C841        C  0.70513390  0.28522895  0.92195706     0.19300
C842        C  0.72347487  0.29955719  0.90690503    -0.18800
C843        C  0.73655062  0.28771070  0.88566704    -0.11000
C844        C  0.73159999  0.26125025  0.87921371     0.21600
C845        C  0.71264753  0.24740542  0.89380086    -0.20400
C846        C  0.69973467  0.25917206  0.91500655    -0.11200
C847        C  0.74606718  0.24677200  0.85825288    -0.15400
C848        C  0.76828217  0.25524616  0.84663823    -0.29200
C849        C  0.69271554  0.29581815  0.94621868    -0.03500
C850        C  0.68962909  0.32151279  0.95138859    -0.40000
H851        H  0.72843622  0.31957297  0.91197088     0.12700
H852        H  0.75059513  0.29935513  0.87471770     0.12400
H853        H  0.70829372  0.22709324  0.88925166     0.11800
H854        H  0.68572702  0.24769497  0.92631531     0.12000
H855        H  0.73881305  0.22733368  0.85324407     0.14800
H856        H  0.77641543  0.27434743  0.85124330     0.13500
H857        H  0.68512039  0.28154552  0.96033581     0.11200
H858        H  0.69451504  0.33615921  0.93652023     0.13200
C859        C  0.70131479  0.00721136  0.63833450     0.19300
C860        C  0.70045922  0.01271502  0.66554413    -0.18800
C861        C  0.71552991  0.03295912  0.67626109    -0.11000
C862        C  0.73199646  0.04825791  0.65998140     0.21600
C863        C  0.73275730  0.04294023  0.63269127    -0.20400
C864        C  0.71744180  0.02273082  0.62188383    -0.11200
C865        C  0.74970498  0.06854264  0.67144494    -0.15400
C866        C  0.74334536  0.08192471  0.69347202    -0.29200
C867        C  0.68763534  0.98327144  0.62872501    -0.03500
C868        C  0.68147420  0.97842398  0.60322761    -0.40000
H869        H  0.68858794  0.00080047  0.67874138     0.12700
H870        H  0.71501924  0.03581730  0.69749600     0.12400
H871        H  0.74551568  0.05420653  0.61977914     0.11800
H872        H  0.71918020  0.01863765  0.60093310     0.12000
H873        H  0.76825868  0.07246783  0.66162577     0.14800
H874        H  0.72406120  0.07925680  0.70217474     0.13500
H875        H  0.68274905  0.96857223  0.64358637     0.11200
H876        H  0.68368479  0.99368382  0.58834761     0.13200
C877        C  0.00214488  0.27262885  0.62835654     0.19300
C878        C  0.99978240  0.26650596  0.65533709    -0.18800
C879        C  0.97879641  0.25165038  0.66464252    -0.11000
C880        C  0.95931493  0.24265687  0.64718683     0.21600
C881        C  0.96190047  0.24813649  0.62002268    -0.20400
C882        C  0.98309526  0.26310394  0.61061798    -0.11200
C883        C  0.93671308  0.22701421  0.65715192    -0.15400
C884        C  0.92725711  0.23075450  0.68171221    -0.29200
C885        C  0.02562394  0.28773580  0.61995997    -0.03500
C886        C  0.02873827  0.29975342  0.59636755    -0.40000
H887        H  0.01440459  0.27310283  0.66937563     0.12700
H888        H  0.97822859  0.24684865  0.68553457     0.12400
H889        H  0.94742286  0.24098538  0.60612511     0.11800
H890        H  0.98464185  0.26672547  0.58955290     0.12000
H891        H  0.92787515  0.21240064  0.64430486     0.14800
H892        H  0.93523529  0.24644321  0.69381109     0.13500
H893        H  0.04092697  0.28981742  0.63471126     0.11200
H894        H  0.01279841  0.30019373  0.58220582     0.13200
C895        C  0.00212903  0.55974549  0.63826586     0.19300
C896        C  0.00172688  0.58660337  0.64421661    -0.18800
C897        C  0.98106665  0.59745675  0.65847965    -0.11000
C898        C  0.96007006  0.58167900  0.66711887     0.21600
C899        C  0.96042777  0.55475728  0.66132605    -0.20400
C900        C  0.98121187  0.54382995  0.64699389    -0.11200
C901        C  0.93863276  0.59254878  0.68369694    -0.15400
C902        C  0.93197824  0.61805093  0.68297970    -0.29200
C903        C  0.02562616  0.54930599  0.62452521    -0.03500
C904        C  0.02761180  0.52514522  0.61391163    -0.40000
H905        H  0.01776121  0.59926055  0.63819531     0.12700
H906        H  0.98217350  0.61806117  0.66341669     0.12400
H907        H  0.94470654  0.54210850  0.66814195     0.11800
H908        H  0.98102689  0.52292389  0.64350120     0.12000
H909        H  0.92828553  0.57928091  0.69699441     0.14800
H910        H  0.94106196  0.63111114  0.66862320     0.13500
H911        H  0.04210616  0.56268439  0.62275535     0.11200
H912        H  0.01066289  0.51231847  0.61317802     0.13200
C913        C  0.43814372  0.56045653  0.92797044     0.19300
C914        C  0.43586437  0.58764525  0.92439153    -0.18800
C915        C  0.42032139  0.59794364  0.90420189    -0.11000
C916        C  0.40662431  0.58123048  0.88688277     0.21600
C917        C  0.40885130  0.55397800  0.89041809    -0.20400
C918        C  0.42450201  0.54363144  0.91068860    -0.11200
C919        C  0.38870799  0.59168902  0.86615006    -0.15400
C920        C  0.39103942  0.61607731  0.85605169    -0.29200
C921        C  0.45301326  0.55083231  0.95135444    -0.03500
C922        C  0.46187179  0.52612640  0.95441841    -0.40000
H923        H  0.44576167  0.60106984  0.93766947     0.12700
H924        H  0.41844650  0.61902650  0.90296283     0.12400
H925        H  0.39819453  0.54065602  0.87765113     0.11800
H926        H  0.42510051  0.52257314  0.91323584     0.12000
H927        H  0.37314826  0.57894226  0.85904906     0.14800
H928        H  0.40731014  0.62849712  0.86185957     0.13500
H929        H  0.45706680  0.56511466  0.96675449     0.11200
H930        H  0.46035549  0.51226908  0.93820464     0.13200
C931        C  0.19346568  0.58196975  0.66267522     0.19300
C932        C  0.19075210  0.57824427  0.63523436    -0.18800
C933        C  0.17085211  0.56215418  0.62513149    -0.11000
C934        C  0.15318180  0.54948439  0.64240534     0.21600
C935        C  0.15602987  0.55312531  0.66978763    -0.20400
C936        C  0.17577698  0.56919072  0.67984021    -0.11200
C937        C  0.12993687  0.53458488  0.63305849    -0.15400
C938        C  0.12599814  0.52628960  0.60803349    -0.29200
C939        C  0.21383148  0.60044559  0.67262949    -0.03500
C940        C  0.22233886  0.60043237  0.69787393    -0.40000
H941        H  0.20384225  0.58813894  0.62153804     0.12700
H942        H  0.16893924  0.56048873  0.60387151     0.12400
H943        H  0.14242462  0.54402332  0.68353840     0.11800
H944        H  0.17633812  0.57216135  0.70102264     0.12000
H945        H  0.11487561  0.53063783  0.64777431     0.14800
H946        H  0.14156120  0.52756430  0.59343788     0.13500
H947        H  0.22199815  0.61458875  0.65871240     0.11200
H948        H  0.21534641  0.58576027  0.71179035     0.13200
C949        C  0.41957620  0.80119867  0.66692904     0.19300
C950        C  0.44673078  0.80529129  0.66504013    -0.18800
C951        C  0.45680909  0.82715105  0.65142620    -0.11000
C952        C  0.43977990  0.84549469  0.63974302     0.21600
C953        C  0.41270838  0.84161872  0.64217351    -0.20400
C954        C  0.40269434  0.81980808  0.65554535    -0.11200
C955        C  0.44907183  0.86986515  0.62647304    -0.15400
C956        C  0.47299750  0.87309992  0.61565627    -0.29200
C957        C  0.40919053  0.77852139  0.68237152    -0.03500
C958        C  0.38530500  0.76813194  0.67793221    -0.40000
H959        H  0.46014945  0.79159707  0.67419621     0.12700
H960        H  0.47779557  0.82995389  0.65072886     0.12400
H961        H  0.39916023  0.85571669  0.63387035     0.11800
H962        H  0.38168172  0.81810211  0.65756865     0.12000
H963        H  0.43495074  0.88564699  0.62468896     0.14800
H964        H  0.48648486  0.85671063  0.61488837     0.13500
H965        H  0.42122297  0.77072134  0.69826698     0.11200
H966        H  0.37363334  0.77506600  0.66140796     0.13200
C967        C  0.21216902  0.05946189  0.57599982     0.19300
C968        C  0.21044266  0.08657296  0.58003243    -0.18800
C969        C  0.22390947  0.09845794  0.60080179    -0.11000
C970        C  0.23962761  0.08340636  0.61787504     0.21600
C971        C  0.24145680  0.05625972  0.61379415    -0.20400
C972        C  0.22767397  0.04429014  0.59313976    -0.11200
C973        C  0.25545614  0.09587152  0.63897015    -0.15400
C974        C  0.24777232  0.11793150  0.65115411    -0.29200
C975        C  0.19980874  0.04823099  0.55214063    -0.03500
C976        C  0.19125723  0.02333290  0.55042048    -0.40000
H977        H  0.19898295  0.09867632  0.56675308     0.12700
H978        H  0.22272795  0.11955366  0.60276839     0.12400
H979        H  0.25376154  0.04436118  0.62645812     0.11800
H980        H  0.22999086  0.02342828  0.58999965     0.12000
H981        H  0.27367940  0.08654868  0.64475596     0.14800
H982        H  0.22874534  0.12630414  0.64676779     0.13500
H983        H  0.19734185  0.06125769  0.53523460     0.11200
H984        H  0.19100743  0.01073624  0.56781035     0.13200
C985        C  0.19558737  0.25322347  0.65430763     0.19300
C986        C  0.17967191  0.23777409  0.63790139    -0.18800
C987        C  0.15954288  0.24900724  0.62315713    -0.11000
C988        C  0.15484001  0.27607780  0.62416975     0.21600
C989        C  0.17112441  0.29183842  0.64009329    -0.20400
C990        C  0.19136065  0.28052544  0.65497647    -0.11200
C991        C  0.13145953  0.28626872  0.61002503    -0.15400
C992        C  0.12612548  0.31179311  0.60557853    -0.29200
C993        C  0.21593834  0.23962833  0.67030955    -0.03500
C994        C  0.22895737  0.25017313  0.69094984    -0.40000
H995        H  0.18246015  0.21673698  0.63686558     0.12700
H996        H  0.14727633  0.23633925  0.61120311     0.12400
H997        H  0.16794773  0.31272546  0.64175243     0.11800
H998        H  0.20341915  0.29325533  0.66696972     0.12000
H999        H  0.11763430  0.27164303  0.60295918     0.14800
H1000       H  0.14052178  0.32682468  0.61001761     0.13500
H1001       H  0.21942745  0.21914737  0.66553938     0.11200
H1002       H  0.22561432  0.27031308  0.69686274     0.13200
C1003       C  0.41354451  0.04139661  0.66199332     0.19300
C1004       C  0.44063450  0.03679517  0.66254298    -0.18800
C1005       C  0.45152753  0.01582539  0.64837413    -0.11000
C1006       C  0.43537831  0.99875391  0.63376983     0.21600
C1007       C  0.40833101  0.00334765  0.63332106    -0.20400
C1008       C  0.39752873  0.02447208  0.64709152    -0.11200
C1009       C  0.44553724  0.97456173  0.62102983    -0.15400
C1010       C  0.47014075  0.97182373  0.61177477    -0.29200
C1011       C  0.40206974  0.06265760  0.67852126    -0.03500
C1012       C  0.38014688  0.07544559  0.67141729    -0.40000
H1013       H  0.45334561  0.04929737  0.67418138     0.12700
H1014       H  0.47237526  0.01242146  0.64975903     0.12400
H1015       H  0.39541671  0.99024140  0.62261012     0.11800
H1016       H  0.37649286  0.02686253  0.64685934     0.12000
H1017       H  0.43186997  0.95832913  0.61884773     0.14800
H1018       H  0.48326289  0.98861978  0.61133982     0.13500
H1019       H  0.41183364  0.06781091  0.69690893     0.11200
H1020       H  0.37146258  0.07156438  0.65218517     0.13200
C1021       C  0.42720787  0.24407085  0.88244201     0.19300
C1022       C  0.45250425  0.25486378  0.88142219    -0.18800
C1023       C  0.46181290  0.27067117  0.90216007    -0.11000
C1024       C  0.44596315  0.27572330  0.92447790     0.21600
C1025       C  0.42086089  0.26449659  0.92552270    -0.20400
C1026       C  0.41162088  0.24885366  0.90490447    -0.11200
C1027       C  0.45494715  0.29094384  0.94798691    -0.15400
C1028       C  0.47715413  0.30529902  0.94941846    -0.29200
C1029       C  0.41726626  0.22758445  0.86027750    -0.03500
C1030       C  0.39184233  0.22806963  0.85351724    -0.40000
H1031       H  0.46499424  0.25121241  0.86447030     0.12700
H1032       H  0.48149048  0.27837914  0.90073558     0.12400
H1033       H  0.40834728  0.26758736  0.94258481     0.11800
H1034       H  0.39236944  0.24012169  0.90685704     0.12000
H1035       H  0.44221443  0.29023627  0.96521907     0.14800
H1036       H  0.48911669  0.30827838  0.93189680     0.13500
H1037       H  0.43090741  0.21553051  0.84917875     0.11200
H1038       H  0.37886936  0.24165407  0.86359020     0.13200
C1039       C  0.73327082  0.59106893  0.11282895     0.19300
C1040       C  0.70643198  0.59273675  0.10718581    -0.18800
C1041       C  0.69550820  0.57804726  0.08648050    -0.11000
C1042       C  0.71144228  0.56187426  0.07072614     0.21600
C1043       C  0.73829395  0.56055129  0.07614227    -0.20400
C1044       C  0.74909670  0.57482692  0.09702583    -0.11200
C1045       C  0.70134653  0.54834493  0.04686235    -0.15400
C1046       C  0.67679737  0.53897772  0.04451506    -0.29200
C1047       C  0.74478146  0.60721249  0.13439792    -0.03500
C1048       C  0.76515648  0.59859222  0.14876981    -0.40000
H1049       H  0.69393776  0.60543814  0.11879586     0.12700
H1050       H  0.67485468  0.58008409  0.08223746     0.12400
H1051       H  0.75103325  0.54864646  0.06393962     0.11800
H1052       H  0.77000801  0.57373865  0.10021599     0.12000
H1053       H  0.71497064  0.54568586  0.03051900     0.14800
H1054       H  0.66368487  0.53901284  0.06148068     0.13500
H1055       H  0.73632215  0.62629598  0.13855819     0.11200
H1056       H  0.77238398  0.57882220  0.14560721     0.13200
C1057       C  0.95017478  0.57427076  0.33136557     0.19300
C1058       C  0.96774125  0.55899163  0.31667190    -0.18800
C1059       C  0.98895359  0.54685132  0.32893346    -0.11000
C1060       C  0.99293287  0.54926949  0.35630141     0.21600
C1061       C  0.97496810  0.56389467  0.37133903    -0.20400
C1062       C  0.95372489  0.57621972  0.35900835    -0.11200
C1063       C  0.01703650  0.53779049  0.36779618    -0.15400
C1064       C  0.02010037  0.53138394  0.39352327    -0.29200
C1065       C  0.92922010  0.58837211  0.31668494    -0.03500
C1066       C  0.91586945  0.60895208  0.32638234    -0.40000
H1067       H  0.96548477  0.55701459  0.29542352     0.12700
H1068       H  0.00253758  0.53576065  0.31688106     0.12400
H1069       H  0.97765891  0.56653632  0.39242646     0.11800
H1070       H  0.94039064  0.58730178  0.37124500     0.12000
H1071       H  0.03283618  0.53363859  0.35400777     0.14800
H1072       H  0.00370918  0.53279673  0.40715117     0.13500
H1073       H  0.92606619  0.58278286  0.29615563     0.11200
H1074       H  0.91905059  0.61560587  0.34650297     0.13200
C1075       C  0.72424994  0.80600329  0.32302050     0.19300
C1076       C  0.69758007  0.80765377  0.32956782    -0.18800
C1077       C  0.68815120  0.82860102  0.34484549    -0.11000
C1078       C  0.70532043  0.84844590  0.35366563     0.21600
C1079       C  0.73186944  0.84683535  0.34677355    -0.20400
C1080       C  0.74122009  0.82603008  0.33162320    -0.11200
C1081       C  0.69661470  0.87205601  0.36857036    -0.15400
C1082       C  0.67306107  0.87499055  0.38026259    -0.29200
C1083       C  0.73400735  0.78394271  0.30641499    -0.03500
C1084       C  0.75868673  0.77512934  0.30868742    -0.40000
H1085       H  0.68403268  0.79270227  0.32285518     0.12700
H1086       H  0.66743323  0.82936790  0.34911043     0.12400
H1087       H  0.74549230  0.86199861  0.35285047     0.11800
H1088       H  0.76169932  0.82612395  0.32613683     0.12000
H1089       H  0.71084408  0.88781876  0.37038311     0.14800
H1090       H  0.65929313  0.85876330  0.38083787     0.13500
H1091       H  0.72077070  0.77484063  0.29231281     0.11200
H1092       H  0.77126400  0.78322701  0.32396465     0.13200
C1093       C  0.69357656  0.08644198  0.15984840     0.19300
C1094       C  0.68656322  0.09020555  0.13319686    -0.18800
C1095       C  0.66566308  0.07615025  0.12209478    -0.11000
C1096       C  0.65118394  0.05833306  0.13766617     0.21600
C1097       C  0.65808777  0.05474774  0.16428504    -0.20400
C1098       C  0.67903999  0.06852507  0.17526970    -0.11200
C1099       C  0.62733803  0.04496243  0.12777405    -0.15400
C1100       C  0.62323574  0.03846140  0.10227592    -0.29200
C1101       C  0.71483041  0.10266182  0.17162843    -0.03500
C1102       C  0.72854755  0.09487773  0.19298924    -0.40000
H1103       H  0.69712202  0.10423755  0.12103023     0.12700
H1104       H  0.66032047  0.07994086  0.10169928     0.12400
H1105       H  0.64692439  0.04149359  0.17679542     0.11800
H1106       H  0.68307958  0.06575000  0.19611654     0.12000
H1107       H  0.61273648  0.03950565  0.14249364     0.14800
H1108       H  0.63867702  0.04123348  0.08770990     0.13500
H1109       H  0.71908390  0.12159619  0.16262552     0.11200
H1110       H  0.72544712  0.07541572  0.20120642     0.13200
C1111       C  0.70770156  0.28138771  0.07567503     0.19300
C1112       C  0.73248895  0.26969853  0.07428989    -0.18800
C1113       C  0.74088224  0.25237688  0.09385227    -0.11000
C1114       C  0.72485732  0.24652487  0.11575865     0.21600
C1115       C  0.69967301  0.25745333  0.11689305    -0.20400
C1116       C  0.69113693  0.27486887  0.09709185    -0.11200
C1117       C  0.73449854  0.22940701  0.13758137    -0.15400
C1118       C  0.75992211  0.22955488  0.14448133    -0.29200
C1119       C  0.70045012  0.29956337  0.05376999    -0.03500
C1120       C  0.67659892  0.30995640  0.04933477    -0.40000
H1121       H  0.74551234  0.27387661  0.05782608     0.12700
H1122       H  0.75998083  0.24350857  0.09167054     0.12400
H1123       H  0.68684894  0.25299347  0.13342781     0.11800
H1124       H  0.67182302  0.28325544  0.09887617     0.12000
H1125       H  0.72057841  0.21748918  0.14864052     0.14800
H1126       H  0.77328455  0.24296297  0.13451569     0.13500
H1127       H  0.71595023  0.30405435  0.03969350     0.11200
H1128       H  0.66087211  0.30745579  0.06357121     0.13200
C1129       C  0.73168436  0.04581787  0.33862509     0.19300
C1130       C  0.70456542  0.04159125  0.33990341    -0.18800
C1131       C  0.69435833  0.01977843  0.35344312    -0.11000
C1132       C  0.71122262  0.00147208  0.36543143     0.21600
C1133       C  0.73834290  0.00564999  0.36386646    -0.20400
C1134       C  0.74848325  0.02767424  0.35082580    -0.11200
C1135       C  0.70147720  0.97665178  0.37749047    -0.15400
C1136       C  0.67738253  0.97358686  0.38799800    -0.29200
C1137       C  0.74240530  0.06806358  0.32292403    -0.03500
C1138       C  0.76346474  0.08172853  0.33103861    -0.40000
H1139       H  0.69129415  0.05510708  0.33027246     0.12700
H1140       H  0.67338476  0.01679013  0.35357501     0.12400
H1141       H  0.75176582  0.99162236  0.37249146     0.11800
H1142       H  0.76951814  0.03002055  0.34949568     0.12000
H1143       H  0.71497905  0.96023535  0.37796717     0.14800
H1144       H  0.66464544  0.99046123  0.39011143     0.13500
H1145       H  0.73304735  0.07296626  0.30424450     0.11200
H1146       H  0.77162113  0.07779299  0.35052030     0.13200
C1147       C  0.23684133  0.53814896  0.15982881     0.19300
C1148       C  0.23170859  0.53604235  0.13260009    -0.18800
C1149       C  0.21763906  0.51463451  0.12260512    -0.11000
C1150       C  0.20849718  0.49477458  0.13975873     0.21600
C1151       C  0.21374424  0.49687836  0.16695434    -0.20400
C1152       C  0.22771577  0.51825763  0.17692471    -0.11200
C1153       C  0.19507090  0.47070024  0.13014991    -0.15400
C1154       C  0.18343856  0.46844217  0.10630591    -0.29200
C1155       C  0.25312456  0.56035254  0.16954165    -0.03500
C1156       C  0.25218083  0.56901535  0.19467661    -0.40000
H1157       H  0.23885828  0.55088836  0.11897058     0.12700
H1158       H  0.21473210  0.51341850  0.10142895     0.12400
H1159       H  0.20732924  0.48167328  0.18055865     0.11800
H1160       H  0.23202291  0.51858650  0.19789520     0.12000
H1161       H  0.19425350  0.45423885  0.14382319     0.14800
H1162       H  0.18188606  0.48543774  0.09343214     0.13500
H1163       H  0.26613447  0.56998898  0.15547584     0.11200
H1164       H  0.23816090  0.56066299  0.20852953     0.13200
C1165       C  0.43926189  0.55236098  0.08325794     0.19300
C1166       C  0.41232595  0.55349230  0.08841449    -0.18800
C1167       C  0.40258631  0.56832474  0.10939406    -0.11000
C1168       C  0.41960728  0.58248709  0.12601269     0.21600
C1169       C  0.44667431  0.58118995  0.12107132    -0.20400
C1170       C  0.45648166  0.56618765  0.09997165    -0.11200
C1171       C  0.40939635  0.60034767  0.14702082    -0.15400
C1172       C  0.38547195  0.59732722  0.15794240    -0.29200
C1173       C  0.44788190  0.53870634  0.05875293    -0.03500
C1174       C  0.47244307  0.53056060  0.05367083    -0.40000
H1175       H  0.39858603  0.54338259  0.07564769     0.12700
H1176       H  0.38158255  0.56945952  0.11165254     0.12400
H1177       H  0.46021748  0.59220488  0.13326542     0.11800
H1178       H  0.47733526  0.56633370  0.09624561     0.12000
H1179       H  0.42153046  0.61685405  0.15296931     0.14800
H1180       H  0.37373530  0.58024772  0.15305871     0.13500
H1181       H  0.43281811  0.53489134  0.04407554     0.11200
H1182       H  0.48735796  0.53172594  0.06890965     0.13200
C1183       C  0.18941915  0.58065191  0.33796005     0.19300
C1184       C  0.18546286  0.55344373  0.34024617    -0.18800
C1185       C  0.16413000  0.54337882  0.35457168    -0.11000
C1186       C  0.14622181  0.56045882  0.36679832     0.21600
C1187       C  0.15006770  0.58759548  0.36425633    -0.20400
C1188       C  0.17129817  0.59761596  0.35002112    -0.11200
C1189       C  0.12217850  0.55117615  0.38055707    -0.15400
C1190       C  0.11841650  0.52667917  0.38994980    -0.29200
C1191       C  0.21152924  0.59071912  0.32151530    -0.03500
C1192       C  0.22105266  0.61530673  0.32361423    -0.40000
H1193       H  0.19879272  0.53993323  0.33070397     0.12700
H1194       H  0.16138968  0.52234460  0.35532598     0.12400
H1195       H  0.13629803  0.60119703  0.37300466     0.11800
H1196       H  0.17280345  0.61866777  0.34790326     0.12000
H1197       H  0.10689711  0.56564116  0.38350697     0.14800
H1198       H  0.13430251  0.51261167  0.38963639     0.13500
H1199       H  0.21991100  0.57756756  0.30688077     0.11200
H1200       H  0.21362232  0.62843370  0.33871020     0.13200
C1201       C  0.40210309  0.80959052  0.33896127     0.19300
C1202       C  0.40430909  0.81262540  0.36653142    -0.18800
C1203       C  0.42023583  0.83230909  0.37728822    -0.11000
C1204       C  0.43423154  0.84948875  0.36057311     0.21600
C1205       C  0.43201597  0.84645028  0.33304559    -0.20400
C1206       C  0.41617771  0.82680921  0.32231387    -0.11200
C1207       C  0.44929826  0.87229907  0.37074426    -0.15400
C1208       C  0.45837469  0.87462459  0.39570863    -0.29200
C1209       C  0.38399796  0.78922478  0.32832903    -0.03500
C1210       C  0.38552683  0.77989123  0.30344099    -0.40000
H1211       H  0.39341535  0.79990053  0.37981173     0.12700
H1212       H  0.42078613  0.83450795  0.39859055     0.12400
H1213       H  0.44221149  0.85970400  0.31971545     0.11800
H1214       H  0.41444701  0.82590155  0.30099537     0.12000
H1215       H  0.45320612  0.88804070  0.35671117     0.14800
H1216       H  0.45709450  0.85819864  0.40937343     0.13500
H1217       H  0.36911959  0.78138777  0.34161048     0.11200
H1218       H  0.40103520  0.78642732  0.29027729     0.13200
C1219       C  0.22038002  0.05298459  0.42502025     0.19300
C1220       C  0.22440213  0.08011316  0.42291218    -0.18800
C1221       C  0.23923368  0.09055630  0.40226278    -0.11000
C1222       C  0.25048051  0.07408411  0.38310259     0.21600
C1223       C  0.24676788  0.04687854  0.38519644    -0.20400
C1224       C  0.23166244  0.03634196  0.40591792    -0.11200
C1225       C  0.26644316  0.08544837  0.36131729    -0.15400
C1226       C  0.25904650  0.10796642  0.34981015    -0.29200
C1227       C  0.20613663  0.04320589  0.44868589    -0.03500
C1228       C  0.19593764  0.01898196  0.45145135    -0.40000
H1229       H  0.21630165  0.09333912  0.43754854     0.12700
H1230       H  0.24235622  0.11157367  0.40162877     0.12400
H1231       H  0.25547229  0.03383830  0.37076628     0.11800
H1232       H  0.22953125  0.01526887  0.40726435     0.12000
H1233       H  0.28409126  0.07547939  0.35487405     0.14800
H1234       H  0.24031522  0.11647254  0.35529224     0.13500
H1235       H  0.20361855  0.05710396  0.46478666     0.11200
H1236       H  0.19575625  0.00540912  0.43492598     0.13200
C1237       C  0.45519027  0.08277012  0.16311209     0.19300
C1238       C  0.45942056  0.05564669  0.16084679    -0.18800
C1239       C  0.48025299  0.04600419  0.14565579    -0.11000
C1240       C  0.49733174  0.06344486  0.13249444     0.21600
C1241       C  0.49295635  0.09047384  0.13463133    -0.20400
C1242       C  0.47226159  0.10007158  0.14974861    -0.11200
C1243       C  0.52122520  0.05474184  0.11831241    -0.15400
C1244       C  0.52534341  0.03024140  0.10939553    -0.29200
C1245       C  0.43417121  0.09247508  0.18103256    -0.03500
C1246       C  0.42444470  0.11693214  0.17944749    -0.40000
H1247       H  0.44684203  0.04189485  0.17124563     0.12700
H1248       H  0.48338543  0.02504278  0.14510506     0.12400
H1249       H  0.50603791  0.10434219  0.12504427     0.11800
H1250       H  0.47053103  0.12110147  0.15163995     0.12000
H1251       H  0.53610059  0.06960597  0.11469477     0.14800
H1252       H  0.50981810  0.01569375  0.11038305     0.13500
H1253       H  0.42689971  0.07926006  0.19631649     0.11200
H1254       H  0.43057100  0.12998059  0.16359498     0.13200
C1255       C  0.23651436  0.30233339  0.15845483     0.19300
C1256       C  0.22936475  0.30301541  0.13161193    -0.18800
C1257       C  0.21306273  0.32292364  0.12192978    -0.11000
C1258       C  0.20376284  0.34264513  0.13903835     0.21600
C1259       C  0.21070125  0.34164301  0.16588225    -0.20400
C1260       C  0.22694982  0.32192123  0.17546798    -0.11200
C1261       C  0.18914514  0.36608744  0.12978824    -0.15400
C1262       C  0.17964058  0.36964970  0.10519089    -0.29200
C1263       C  0.25516211  0.28211774  0.16808455    -0.03500
C1264       C  0.25556554  0.27435252  0.19355982    -0.40000
H1265       H  0.23670282  0.28832109  0.11804843     0.12700
H1266       H  0.20863333  0.32314774  0.10100297     0.12400
H1267       H  0.20419982  0.35673811  0.17944598     0.11800
H1268       H  0.23274034  0.32279498  0.19605038     0.12000
H1269       H  0.18679506  0.38185484  0.14404841     0.14800
H1270       H  0.17949288  0.35372408  0.09099417     0.13500
H1271       H  0.26883689  0.27361184  0.15402984     0.11200
H1272       H  0.24081302  0.28150508  0.20722840     0.13200
C1273       C  0.42718276  0.26152704  0.12492267     0.19300
C1274       C  0.45433288  0.26343846  0.12086741    -0.18800
C1275       C  0.46439429  0.27575399  0.09813215    -0.11000
C1276       C  0.44734034  0.28610213  0.07890336     0.21600
C1277       C  0.42027959  0.28408539  0.08299416    -0.20400
C1278       C  0.41027973  0.27198578  0.10565653    -0.11200
C1279       C  0.45657674  0.29737502  0.05340943    -0.15400
C1280       C  0.48057531  0.30754052  0.04929276    -0.29200
C1281       C  0.41685265  0.24660636  0.14805338    -0.03500
C1282       C  0.39273897  0.25064471  0.15802216    -0.40000
H1283       H  0.46775624  0.25507847  0.13514911     0.12700
H1284       H  0.48537929  0.27630420  0.09529959     0.12400
H1285       H  0.40673046  0.29151743  0.06830786     0.11800
H1286       H  0.38926885  0.27000048  0.10739362     0.12000
H1287       H  0.44238894  0.29822732  0.03741069     0.14800
H1288       H  0.49426722  0.30932822  0.06561438     0.13500
H1289       H  0.42904240  0.23122873  0.15637414     0.11200
H1290       H  0.38091304  0.26672956  0.15066807     0.13200
C1291       C  0.40425865  0.04480003  0.35372301     0.19300
C1292       C  0.39051940  0.02960170  0.37233500    -0.18800
C1293       C  0.40229228  0.00801898  0.38435755    -0.11000
C1294       C  0.42829558  0.00150427  0.37855078     0.21600
C1295       C  0.44243188  0.01707027  0.36039559    -0.20400
C1296       C  0.43048276  0.03855466  0.34802638    -0.11200
C1297       C  0.43907933  0.97712472  0.39014524    -0.15400
C1298       C  0.46470720  0.97282673  0.39438258    -0.29200
C1299       C  0.39027674  0.06681928  0.34084767    -0.03500
C1300       C  0.39591575  0.07604949  0.31647072    -0.40000
H1301       H  0.37033659  0.03405522  0.37711966     0.12700
H1302       H  0.39095511  0.99621730  0.39812471     0.12400
H1303       H  0.46237859  0.01224431  0.35512244     0.11800
H1304       H  0.44179451  0.05017550  0.33413497     0.12000
H1305       H  0.42503544  0.96212443  0.39602265     0.14800
H1306       H  0.47887764  0.98846213  0.39128731     0.13500
H1307       H  0.37318593  0.07434326  0.35115788     0.11200
H1308       H  0.41209970  0.06800192  0.30519080     0.13200
C1309       C  0.98304194  0.29591820  0.37691321     0.19300
C1310       C  0.96551969  0.30749784  0.35905066    -0.18800
C1311       C  0.94794878  0.29201770  0.34459723    -0.11000
C1312       C  0.94748461  0.26453892  0.34787131     0.21600
C1313       C  0.96399765  0.25320884  0.36688275    -0.20400
C1314       C  0.98160342  0.26866568  0.38123199    -0.11200
C1315       C  0.93000142  0.24705123  0.33217225    -0.15400
C1316       C  0.91966795  0.25386863  0.30862232    -0.29200
C1317       C  0.00339266  0.31242947  0.38981064    -0.03500
C1318       C  0.02755797  0.30312178  0.39438216    -0.40000
H1319       H  0.96595965  0.32849447  0.35568549     0.12700
H1320       H  0.93482696  0.30173384  0.33099221     0.12400
H1321       H  0.96366963  0.23221254  0.37026666     0.11800
H1322       H  0.99421109  0.25920326  0.39554921     0.12000
H1323       H  0.92631092  0.22743988  0.33985375     0.14800
H1324       H  0.92390034  0.27294982  0.30005489     0.13500
H1325       H  0.99950964  0.33318417  0.39262134     0.11200
H1326       H  0.03204245  0.28305980  0.38880267     0.13200
C1327       C  0.15487562  0.28858773  0.37020731     0.19300
C1328       C  0.16075166  0.26176310  0.36934235    -0.18800
C1329       C  0.18283166  0.25279436  0.35591528    -0.11000
C1330       C  0.19979985  0.27055643  0.34303291     0.21600
C1331       C  0.19417427  0.29747154  0.34422799    -0.20400
C1332       C  0.17196098  0.30647265  0.35767767    -0.11200
C1333       C  0.22196441  0.26148473  0.32624904    -0.15400
C1334       C  0.23248639  0.23743703  0.32848151    -0.29200
C1335       C  0.12968743  0.29648402  0.38248251    -0.03500
C1336       C  0.12326548  0.32121307  0.38911188    -0.40000
H1337       H  0.14777269  0.24752545  0.37851174     0.12700
H1338       H  0.18569671  0.23183555  0.35481359     0.12400
H1339       H  0.20668586  0.31153976  0.33418459     0.11800
H1340       H  0.16786159  0.32725720  0.35729427     0.12000
H1341       H  0.22914391  0.27468383  0.31090619     0.14800
H1342       H  0.22638052  0.22438690  0.34434324     0.13500
H1343       H  0.11576503  0.28082923  0.38656191     0.11200
H1344       H  0.13763322  0.33686004  0.38765970     0.13200
C1345       C  0.45369676  0.76151205  0.84449830     0.19300
C1346       C  0.45832422  0.76459187  0.87174007    -0.18800
C1347       C  0.48021829  0.77857481  0.88075632    -0.11000
C1348       C  0.49804824  0.78971796  0.86257796     0.21600
C1349       C  0.49341422  0.78653448  0.83538283    -0.20400
C1350       C  0.47160973  0.77261211  0.82640420    -0.11200
C1351       C  0.52252651  0.80334144  0.87079314    -0.15400
C1352       C  0.52704233  0.81289034  0.89525357    -0.29200
C1353       C  0.43117522  0.74513909  0.83560813    -0.03500
C1354       C  0.42086584  0.74688020  0.81113864    -0.40000
H1355       H  0.44510739  0.75587566  0.88610859     0.12700
H1356       H  0.48338932  0.77987960  0.90188507     0.12400
H1357       H  0.50699754  0.79452467  0.82093018     0.11800
H1358       H  0.46949280  0.76991810  0.80527607     0.12000
H1359       H  0.53721998  0.80631004  0.85550584     0.14800
H1360       H  0.51163647  0.81232873  0.91006131     0.13500
H1361       H  0.42311558  0.73094941  0.84953904     0.11200
H1362       H  0.42787259  0.76173101  0.79740252     0.13200
C1363       C  0.69856690  0.77745478  0.83061168     0.19300
C1364       C  0.69464289  0.80428665  0.83553761    -0.18800
C1365       C  0.67282418  0.81279854  0.85013052    -0.11000
C1366       C  0.65440615  0.79450742  0.85991536     0.21600
C1367       C  0.65840097  0.76779388  0.85484277    -0.20400
C1368       C  0.68002276  0.75935948  0.84035962    -0.11200
C1369       C  0.62986636  0.80198748  0.87393225    -0.15400
C1370       C  0.62496318  0.82568255  0.88461268    -0.29200
C1371       C  0.72104148  0.76871081  0.81394632    -0.03500
C1372       C  0.73092619  0.74432565  0.81590180    -0.40000
H1373       H  0.70836894  0.81868758  0.82789713     0.12700
H1374       H  0.67019338  0.83363130  0.85301261     0.12400
H1375       H  0.64439927  0.75327803  0.86172791     0.11800
H1376       H  0.68152732  0.73863521  0.83613225     0.12000
H1377       H  0.61527868  0.78661027  0.87613972     0.14800
H1378       H  0.64014630  0.84060152  0.88478275     0.13500
H1379       H  0.72919088  0.78235184  0.79952650     0.11200
H1380       H  0.72378634  0.73120516  0.83128273     0.13200
C1381       C  0.23452015  0.30132411  0.84063031     0.19300
C1382       C  0.20798327  0.30810091  0.83906048    -0.18800
C1383       C  0.19812214  0.32901706  0.85396715    -0.11000
C1384       C  0.21484479  0.34367668  0.87047747     0.21600
C1385       C  0.24134808  0.33680988  0.87195239    -0.20400
C1386       C  0.25110865  0.31592290  0.85724149    -0.11200
C1387       C  0.20636063  0.36766971  0.88458116    -0.15400
C1388       C  0.18132463  0.37438440  0.88926748    -0.29200
C1389       C  0.24506670  0.28015021  0.82363464    -0.03500
C1390       C  0.26529045  0.26530077  0.83148823    -0.40000
H1391       H  0.19494417  0.29734532  0.82609472     0.12700
H1392       H  0.17772389  0.33411633  0.85173567     0.12400
H1393       H  0.25474388  0.34803591  0.88413348     0.11800
H1394       H  0.27186327  0.31186368  0.85822746     0.12000
H1395       H  0.22181869  0.38060838  0.89155337     0.14800
H1396       H  0.16549712  0.36081278  0.88499526     0.13500
H1397       H  0.23623924  0.27693159  0.80433284     0.11200
H1398       H  0.27289608  0.26739250  0.85146700     0.13200
C1399       C  0.24483726  0.55469051  0.86983155     0.19300
C1400       C  0.25649425  0.53176231  0.87961170    -0.18800
C1401       C  0.24130355  0.51240979  0.89204206    -0.11000
C1402       C  0.21407985  0.51571160  0.89501511     0.21600
C1403       C  0.20283492  0.53951260  0.88709636    -0.20400
C1404       C  0.21799840  0.55881452  0.87460841    -0.11200
C1405       C  0.19675071  0.49442890  0.90523501    -0.15400
C1406       C  0.20216665  0.46895786  0.90104755    -0.29200
C1407       C  0.26082287  0.57329144  0.85373553    -0.03500
C1408       C  0.25030969  0.58746986  0.83393927    -0.40000
H1409       H  0.27722336  0.52836308  0.87672867     0.12700
H1410       H  0.25088086  0.49477571  0.89894757     0.12400
H1411       H  0.18205058  0.54279558  0.88968042     0.11800
H1412       H  0.20854251  0.57675719  0.86838887     0.12000
H1413       H  0.17808715  0.49997905  0.91378261     0.14800
H1414       H  0.21996089  0.46408599  0.89036510     0.13500
H1415       H  0.28191466  0.57343194  0.85648950     0.11200
H1416       H  0.22949390  0.58597498  0.82992502     0.13200
C1417       C  0.64898928  0.06841878  0.86779482     0.19300
C1418       C  0.65532389  0.09510318  0.87004097    -0.18800
C1419       C  0.67573057  0.10597901  0.85522192    -0.11000
C1420       C  0.69033807  0.09036560  0.83766678     0.21600
C1421       C  0.68392635  0.06368260  0.83522625    -0.20400
C1422       C  0.66352373  0.05271863  0.85024161    -0.11200
C1423       C  0.71130589  0.10189327  0.82077295    -0.15400
C1424       C  0.72530601  0.12287812  0.82852665    -0.29200
C1425       C  0.62556012  0.05853991  0.88213039    -0.03500
C1426       C  0.62081885  0.03308770  0.88771729    -0.40000
H1427       H  0.64410754  0.10773923  0.88300203     0.12700
H1428       H  0.67937427  0.12682452  0.85694861     0.12400
H1429       H  0.69460613  0.05135518  0.82152944     0.11800
H1430       H  0.65866067  0.03225732  0.84735294     0.12000
H1431       H  0.71538724  0.09285322  0.80173240     0.14800
H1432       H  0.72244641  0.13084087  0.84825340     0.13500
H1433       H  0.61153111  0.07319050  0.88855518     0.11200
H1434       H  0.63571035  0.01841868  0.88397868     0.13200
C1435       C  0.48000971  0.05155299  0.88098671     0.19300
C1436       C  0.46218522  0.03927311  0.86389511    -0.18800
C1437       C  0.44435531  0.05411576  0.84912894    -0.11000
C1438       C  0.44392436  0.08168292  0.85125893     0.21600
C1439       C  0.46067123  0.09376089  0.86961001    -0.20400
C1440       C  0.47849317  0.07892761  0.88433078    -0.11200
C1441       C  0.42632519  0.09853106  0.83498192    -0.15400
C1442       C  0.41520626  0.09070881  0.81210898    -0.29200
C1443       C  0.50094416  0.03560581  0.89368271    -0.03500
C1444       C  0.52500830  0.04556624  0.89768912    -0.40000
H1445       H  0.46264420  0.01819241  0.86127485     0.12700
H1446       H  0.43108013  0.04382571  0.83610951     0.12400
H1447       H  0.46038104  0.11485764  0.87215705     0.11800
H1448       H  0.49125392  0.08900139  0.89807867     0.12000
H1449       H  0.42322362  0.11855625  0.84161441     0.14800
H1450       H  0.41871966  0.07115210  0.80453076     0.13500
H1451       H  0.49766118  0.01469834  0.89638466     0.11200
H1452       H  0.52876520  0.06588058  0.89231553     0.13200
C1453       C  0.92309960  0.54449134  0.82812457     0.19300
C1454       C  0.94959415  0.53757766  0.82592180    -0.18800
C1455       C  0.95937155  0.51564370  0.83946459    -0.11000
C1456       C  0.94263344  0.49999790  0.85513053     0.21600
C1457       C  0.91614085  0.50674529  0.85703496    -0.20400
C1458       C  0.90647623  0.52876374  0.84384028    -0.11200
C1459       C  0.95159243  0.47563067  0.86840852    -0.15400
C1460       C  0.97607450  0.47216112  0.87752636    -0.29200
C1461       C  0.91267256  0.56703544  0.81261652    -0.03500
C1462       C  0.89211614  0.58109994  0.82117356    -0.40000
H1463       H  0.96269612  0.54909701  0.81360331     0.12700
H1464       H  0.97977238  0.51053933  0.83699720     0.12400
H1465       H  0.90278812  0.49478849  0.86864672     0.11800
H1466       H  0.88576033  0.53286163  0.84529863     0.12000
H1467       H  0.93696936  0.46051894  0.87206255     0.14800
H1468       H  0.99007364  0.48820664  0.87640486     0.13500
H1469       H  0.92181864  0.57186583  0.79376253     0.11200
H1470       H  0.88410729  0.57722944  0.84075659     0.13200
C1471       C  0.90925338  0.30390115  0.84640120     0.19300
C1472       C  0.89492936  0.32125780  0.86235891    -0.18800
C1473       C  0.90720476  0.34242283  0.87477183    -0.11000
C1474       C  0.93418806  0.34656749  0.87186899     0.21600
C1475       C  0.94885438  0.32867523  0.85680229    -0.20400
C1476       C  0.93654493  0.30753252  0.84421720    -0.11200
C1477       C  0.94575447  0.37113898  0.88240847    -0.15400
C1478       C  0.97120475  0.37407302  0.88858594    -0.29200
C1479       C  0.89456218  0.28316403  0.83183234    -0.03500
C1480       C  0.90481052  0.26768397  0.81286627    -0.40000
H1481       H  0.87395684  0.31892417  0.86460675     0.12700
H1482       H  0.89546148  0.35596217  0.88622713     0.12400
H1483       H  0.96963434  0.33154805  0.85374505     0.11800
H1484       H  0.94856503  0.29455356  0.83254316     0.12000
H1485       H  0.93262862  0.38765671  0.88515028     0.14800
H1486       H  0.98415280  0.35722686  0.88858962     0.13500
H1487       H  0.87376036  0.28146572  0.83610015     0.11200
H1488       H  0.92533236  0.26892731  0.80762019     0.13200
C1489       C  0.91840439  0.30004119  0.15631118     0.19300
C1490       C  0.94421574  0.30898368  0.15974862    -0.18800
C1491       C  0.95408988  0.32973226  0.14431479    -0.11000
C1492       C  0.93807910  0.34217277  0.12544161     0.21600
C1493       C  0.91238168  0.33313047  0.12197539    -0.20400
C1494       C  0.90265156  0.31230928  0.13710457    -0.11200
C1495       C  0.94625735  0.36631716  0.11109994    -0.15400
C1496       C  0.97120319  0.37270365  0.10525734    -0.29200
C1497       C  0.90753524  0.27941343  0.17422200    -0.03500
C1498       C  0.88804266  0.26330086  0.16662222    -0.40000
H1499       H  0.95661712  0.30014826  0.17467093     0.12700
H1500       H  0.97378389  0.33668321  0.14798763     0.12400
H1501       H  0.89952741  0.34264956  0.10788857     0.11800
H1502       H  0.88239458  0.30667778  0.13444900     0.12000
H1503       H  0.93073553  0.37939911  0.10469431     0.14800
H1504       H  0.98682780  0.35880251  0.10901010     0.13500
H1505       H  0.91537312  0.27784325  0.19416400     0.11200
H1506       H  0.88129676  0.26385202  0.14623452     0.13200
C1507       C  0.93481753  0.49636775  0.13328382     0.19300
C1508       C  0.93410728  0.49989639  0.16084603    -0.18800
C1509       C  0.91985574  0.52035314  0.17212349    -0.11000
C1510       C  0.90575641  0.53792933  0.15610209     0.21600
C1511       C  0.90605611  0.53425139  0.12849145    -0.20400
C1512       C  0.92058812  0.51377423  0.11711312    -0.11200
C1513       C  0.88981302  0.55935193  0.16806753    -0.15400
C1514       C  0.89677489  0.57101820  0.19094352    -0.29200
C1515       C  0.94912087  0.47316110  0.12283314    -0.03500
C1516       C  0.95752537  0.47014064  0.09764189    -0.40000
H1517       H  0.94446269  0.48654361  0.17383307     0.12700
H1518       H  0.91937145  0.52187234  0.19350398     0.12400
H1519       H  0.89502964  0.54724849  0.11572236     0.11800
H1520       H  0.92005605  0.51126275  0.09584173     0.12000
H1521       H  0.87232967  0.56582259  0.15775307     0.14800
H1522       H  0.91525592  0.56583571  0.20013622     0.13500
H1523       H  0.95374240  0.45796760  0.13719576     0.11200
H1524       H  0.95550105  0.48607001  0.08349480     0.13200
C1525       C  0.65061788  0.78633325  0.13262931     0.19300
C1526       C  0.65582988  0.75931964  0.13262167    -0.18800
C1527       C  0.67743322  0.74922274  0.14617583    -0.11000
C1528       C  0.69427656  0.76591640  0.16040733     0.21600
C1529       C  0.68901683  0.79294486  0.16061590    -0.20400
C1530       C  0.66755789  0.80313228  0.14666968    -0.11200
C1531       C  0.71622404  0.75517497  0.17652534    -0.15400
C1532       C  0.72957042  0.73367770  0.16907166    -0.29200
C1533       C  0.62618550  0.79581575  0.11972339    -0.03500
C1534       C  0.62286965  0.82036344  0.11029909    -0.40000
H1535       H  0.64289959  0.74588751  0.12235068     0.12700
H1536       H  0.68034372  0.72819975  0.14624977     0.12400
H1537       H  0.70143811  0.80617051  0.17175077     0.11800
H1538       H  0.66376270  0.82397264  0.14773987     0.12000
H1539       H  0.72127652  0.76499241  0.19491691     0.14800
H1540       H  0.72551012  0.72494928  0.14989001     0.13500
H1541       H  0.61044484  0.78164206  0.11731254     0.11200
H1542       H  0.63928973  0.83393999  0.11018137     0.13200
C1543       C  0.44818742  0.76990560  0.15844719     0.19300
C1544       C  0.45042461  0.79645240  0.15114510    -0.18800
C1545       C  0.47313675  0.80595831  0.13857323    -0.11000
C1546       C  0.49429773  0.78905454  0.13326193     0.21600
C1547       C  0.49197887  0.76257601  0.14069376    -0.20400
C1548       C  0.46932254  0.75310030  0.15306593    -0.11200
C1549       C  0.51970299  0.79809630  0.12155098    -0.15400
C1550       C  0.52357395  0.82126063  0.10905291    -0.29200
C1551       C  0.42470509  0.76058703  0.17351495    -0.03500
C1552       C  0.41652139  0.73539792  0.17313401    -0.40000
H1553       H  0.43464315  0.80993977  0.15542946     0.12700
H1554       H  0.47420245  0.82662023  0.13382148     0.12400
H1555       H  0.50800608  0.74913198  0.13727557     0.11800
H1556       H  0.46888776  0.73275914  0.15921700     0.12000
H1557       H  0.53588553  0.78442346  0.12278279     0.14800
H1558       H  0.50710127  0.83420196  0.10571247     0.13500
H1559       H  0.41433232  0.77470234  0.18570779     0.11200
H1560       H  0.42598053  0.72157497  0.15991631     0.13200
C1561       C  0.93406408  0.79936971  0.41705204     0.19300
C1562       C  0.93178827  0.77219414  0.41369714    -0.18800
C1563       C  0.91724270  0.76180348  0.39285602    -0.11000
C1564       C  0.90458182  0.77840869  0.37461500     0.21600
C1565       C  0.90677249  0.80569066  0.37798361    -0.20400
C1566       C  0.92149280  0.81613867  0.39893179    -0.11200
C1567       C  0.88776110  0.76764583  0.35308287    -0.15400
C1568       C  0.89100174  0.74324255  0.34352016    -0.29200
C1569       C  0.94711622  0.80906008  0.44137046    -0.03500
C1570       C  0.95731750  0.83325438  0.44437298    -0.40000
H1571       H  0.94081232  0.75886192  0.42769798     0.12700
H1572       H  0.91522638  0.74071412  0.39186959     0.12400
H1573       H  0.89682344  0.81892488  0.36456362     0.11800
H1574       H  0.92214837  0.83720527  0.40144438     0.12000
H1575       H  0.87211956  0.77984372  0.34534807     0.14800
H1576       H  0.90726217  0.73138856  0.35031245     0.13500
H1577       H  0.94832523  0.79535380  0.45786585     0.11200
H1578       H  0.95880963  0.84652408  0.42757407     0.13200
C1579       C  0.91203921  0.79033471  0.62762515     0.19300
C1580       C  0.89865418  0.80338525  0.60724825    -0.18800
C1581       C  0.91232771  0.81783146  0.58804791    -0.11000
C1582       C  0.93987124  0.81952008  0.58874884     0.21600
C1583       C  0.95307952  0.80788436  0.61010371    -0.20400
C1584       C  0.93938799  0.79342539  0.62932055    -0.11200
C1585       C  0.95546705  0.83233136  0.56719551    -0.15400
C1586       C  0.94659472  0.83412397  0.54213837    -0.29200
C1587       C  0.89681769  0.77363570  0.64649546    -0.03500
C1588       C  0.90726874  0.75332898  0.65994119    -0.40000
H1589       H  0.87754704  0.80189155  0.60579906     0.12700
H1590       H  0.90118090  0.82748761  0.57268387     0.12400
H1591       H  0.97418603  0.80933709  0.61152106     0.11800
H1592       H  0.95035013  0.78466164  0.64535190     0.12000
H1593       H  0.97554463  0.83784197  0.57149929     0.14800
H1594       H  0.92725451  0.82647042  0.53773416     0.13500
H1595       H  0.87589019  0.77710669  0.64800602     0.11200
H1596       H  0.92785223  0.74869810  0.65764208     0.13200
C1597       C  0.91814112  0.08574947  0.62407425     0.19300
C1598       C  0.94553654  0.08648747  0.62154787    -0.18800
C1599       C  0.95803109  0.07385424  0.60037009    -0.11000
C1600       C  0.94319767  0.06060994  0.58109903     0.21600
C1601       C  0.91589920  0.05961373  0.58385432    -0.20400
C1602       C  0.90348389  0.07190004  0.60510350    -0.11200
C1603       C  0.95488763  0.05024729  0.55634084    -0.15400
C1604       C  0.97974904  0.04191140  0.55378061    -0.29200
C1605       C  0.90514994  0.10137410  0.64518333    -0.03500
C1606       C  0.88146561  0.09512573  0.65517030    -0.40000
H1607       H  0.95724040  0.09729979  0.63571113     0.12700
H1608       H  0.97907228  0.07552842  0.59847352     0.12400
H1609       H  0.90402545  0.04985071  0.56906406     0.11800
H1610       H  0.88232593  0.07151937  0.60585033     0.12000
H1611       H  0.94203711  0.04911240  0.53922459     0.14800
H1612       H  0.99231673  0.04029037  0.57102969     0.13500
H1613       H  0.91533866  0.11860921  0.65257598     0.11200
H1614       H  0.87194495  0.07698897  0.64927864     0.13200
C1615       C  0.94890615  0.07965938  0.43037630     0.19300
C1616       C  0.92198636  0.08484762  0.42936723    -0.18800
C1617       C  0.91126210  0.09887168  0.40827898    -0.11000
C1618       C  0.92726128  0.10809590  0.38750328     0.21600
C1619       C  0.95433827  0.10359959  0.38882977    -0.20400
C1620       C  0.96511417  0.08941036  0.40999764    -0.11200
C1621       C  0.91623048  0.12309742  0.36478468    -0.15400
C1622       C  0.89137282  0.11981672  0.35663627    -0.29200
C1623       C  0.95905686  0.06525099  0.45380700    -0.03500
C1624       C  0.98224916  0.05272720  0.45492254    -0.40000
H1625       H  0.90911998  0.07806446  0.44506545     0.12700
H1626       H  0.89048913  0.10286424  0.40868329     0.12400
H1627       H  0.96715478  0.11095520  0.37336523     0.11800
H1628       H  0.98607215  0.08656898  0.41052786     0.12000
H1629       H  0.92895463  0.13672306  0.35426343     0.14800
H1630       H  0.87903488  0.10516595  0.36611808     0.13500
H1631       H  0.94595491  0.06395475  0.47073058     0.11200
H1632       H  0.99453712  0.05151752  0.43741027     0.13200
C1633       C  0.23179944  0.76635297  0.62244942     0.19300
C1634       C  0.22522650  0.79303056  0.62044491    -0.18800
C1635       C  0.21030928  0.80223082  0.59904721    -0.11000
C1636       C  0.20193872  0.78482737  0.57912144     0.21600
C1637       C  0.20842966  0.75822649  0.58127991    -0.20400
C1638       C  0.22314510  0.74906493  0.60258850    -0.11200
C1639       C  0.18882981  0.79367438  0.55444971    -0.15400
C1640       C  0.17556201  0.81628993  0.55178948    -0.29200
C1641       C  0.24913768  0.75719523  0.64425680    -0.03500
C1642       C  0.24883232  0.73221760  0.65297454    -0.40000
H1643       H  0.23196486  0.80681983  0.63526164     0.12700
H1644       H  0.20629519  0.82301330  0.59768816     0.12400
H1645       H  0.20261587  0.74449369  0.56600828     0.11800
H1646       H  0.22855189  0.72857247  0.60275981     0.12000
H1647       H  0.19006669  0.78056676  0.53755324     0.14800
H1648       H  0.17186889  0.82849218  0.56898509     0.13500
H1649       H  0.26253239  0.77123276  0.65314321     0.11200
H1650       H  0.23433030  0.71858264  0.64537657     0.13200
C1651       C  0.24030698  0.77617398  0.37991183     0.19300
C1652       C  0.23951651  0.80287094  0.38669069    -0.18800
C1653       C  0.22500998  0.81122640  0.40879761    -0.11000
C1654       C  0.21164971  0.79282026  0.42475847     0.21600
C1655       C  0.21316202  0.76615629  0.41831889    -0.20400
C1656       C  0.22711466  0.75792822  0.39610730    -0.11200
C1657       C  0.19729197  0.80014343  0.44921336    -0.15400
C1658       C  0.18450192  0.82295839  0.45258349    -0.29200
C1659       C  0.25568982  0.76695104  0.35669978    -0.03500
C1660       C  0.24645197  0.74747863  0.34137837    -0.40000
H1661       H  0.24992329  0.81721779  0.37477583     0.12700
H1662       H  0.22479698  0.83187802  0.41373408     0.12400
H1663       H  0.20344573  0.75156978  0.43054983     0.11800
H1664       H  0.22804033  0.73712340  0.39192575     0.12000
H1665       H  0.19581948  0.78516487  0.46449996     0.14800
H1666       H  0.18356990  0.83697850  0.43636959     0.13500
H1667       H  0.27497824  0.77524065  0.35306074     0.11200
H1668       H  0.22658295  0.74048660  0.34472770     0.13200
loop_ 
_geom_bond_atom_site_label_1 
_geom_bond_atom_site_label_2 
_geom_bond_distance 
_geom_bond_site_symmetry_2 
_ccdc_geom_bond_type 
C1            C2   1.402       .  A
C1            C6   1.407       .  A
C1         C1640   1.487       .  S
C2            C3   1.404       .  A
C2            H7   1.084       .  S
C3            C4   1.406       .  A
C3          C622   1.484       .  S
C4            C5   1.404       .  A
C4            H8   1.084       .  S
C5            C6   1.406       .  A
C5         C1658   1.490       .  S
C6            H9   1.081       .  S
C10          C11   1.401   1_655  A
C10          C15   1.403       .  A
C10        C1604   1.485       .  S
C11          C12   1.406       .  A
C11          H16   1.084       .  S
C12          C13   1.407       .  A
C12         C624   1.487   1_545  S
C13          C14   1.405   1_455  A
C13          H17   1.084       .  S
C14          C15   1.406       .  A
C14        C1624   1.489       .  S
C15          H18   1.082       .  S
C19          C20   1.411       .  A
C19          C24   1.401       .  A
C19        C1586   1.490       .  S
C20          C21   1.411       .  A
C20          H25   1.082       .  S
C21          C22   1.406       .  A
C21         C623   1.490   1_655  S
C22          C23   1.401       .  A
C22          H26   1.084       .  S
C23          C24   1.403       .  A
C23        C1570   1.485       .  S
C24          H27   1.084       .  S
C28          C29   1.411       .  A
C28          C33   1.406       .  A
C28        C1550   1.497       .  S
C29          C30   1.410       .  A
C29          H34   1.081       .  S
C30          C31   1.405       .  A
C30        C1534   1.491       .  S
C31          C32   1.405       .  A
C31          H35   1.084       .  S
C32          C33   1.405       .  A
C32         C658   1.492       .  S
C33          H36   1.084       .  S
C37          C38   1.402       .  A
C37          C42   1.405       .  A
C37        C1496   1.487       .  S
C38          C39   1.405   1_655  A
C38          H43   1.084   1_655  S
C39          C40   1.408   1_455  A
C39         C691   1.488       .  S
C40          C41   1.406       .  A
C40          H44   1.084       .  S
C41          C42   1.407       .  A
C41        C1516   1.493       .  S
C42          H45   1.082       .  S
C46          C47   1.401   1_655  A
C46          C51   1.406       .  A
C46        C1478   1.483       .  S
C47          C48   1.404       .  A
C47          H52   1.084       .  S
C48          C49   1.403       .  A
C48         C690   1.485       .  S
C49          C50   1.402   1_455  A
C49          H53   1.084       .  S
C50          C51   1.407       .  A
C50        C1460   1.485       .  S
C51          H54   1.083       .  S
C55          C56   1.408       .  A
C55          C60   1.399       .  A
C55        C1444   1.483       .  S
C56          C57   1.410   1_545  A
C56          H61   1.083       .  S
C57          C58   1.407   1_565  A
C57         C656   1.489       .  S
C58          C59   1.403       .  A
C58          H62   1.084   1_545  S
C59          C60   1.403       .  A
C59        C1426   1.486       .  S
C60          H63   1.083       .  S
C64          C65   1.399       .  A
C64          C69   1.404       .  A
C64        C1388   1.483       .  S
C65          C66   1.403       .  A
C65          H70   1.084       .  S
C66          C67   1.407       .  A
C66         C689   1.483       .  S
C67          C68   1.410       .  A
C67          H71   1.082       .  S
C68          C69   1.401       .  A
C68        C1406   1.488       .  S
C69          H72   1.084       .  S
C73          C74   1.409       .  A
C73          C78   1.402       .  A
C73        C1352   1.489       .  S
C74          C75   1.410       .  A
C74          H79   1.080       .  S
C75          C76   1.404       .  A
C75        C1370   1.492       .  S
C76          C77   1.403       .  A
C76          H80   1.084       .  S
C77          C78   1.402       .  A
C77         C657   1.483       .  S
C78          H81   1.084       .  S
C82          C83   1.400       .  A
C82          C87   1.405       .  A
C82        C1336   1.484       .  S
C83          C84   1.403       .  A
C83          H88   1.084       .  S
C84          C85   1.407       .  A
C84         C758   1.483       .  S
C85          C86   1.406       .  A
C85          H89   1.083       .  S
C86          C87   1.400       .  A
C86        C1318   1.481       .  S
C87          H90   1.083       .  S
O91         Mg93   2.143       .  S
O91         Mg99   2.149       .  S
O91         C126   1.237       .  S
C92         H131   1.081       .  S
C92         O105   1.236       .  S
C92         O129   1.271       .  A
Mg93        O122   2.157       .  S
Mg93        O137   2.302       .  S
Mg93        O133   2.284       .  S
Mg93        O104   2.288       .  S
O94        Mg136   2.151       .  S
O94        Mg119   2.144       .  S
O94         C115   1.236       .  S
O95         C126   1.271       .  A
O95        Mg119   2.301       .  S
C96        C1334   1.473       .  S
C96          O98   1.272       .  A
C96         O110   1.270       .  A
O97         C125   1.270       .  A
O97         Mg99   2.293       .  S
O98        Mg130   2.275       .  S
Mg99        O105   2.145       .  S
Mg99        O113   2.269       .  S
Mg99        O101   2.292       .  S
C100       C1226   1.470       .  S
C100        O138   1.265       .  A
C100        O106   1.278       .  A
O101        C108   1.273       .  A
H102        C115   1.081       .  S
C103        H128   1.081       .  S
C103        O117   1.238       .  S
C103        O118   1.271       .  A
O104        C127   1.268       .  A
O105       Mg119   2.153       .  S
O106       Mg136   2.343       .  S
C107       C1300   1.478       .  S
C107        O120   1.273       .  A
C107        O112   1.277       .  A
C108       C1246   1.474       .  S
C108        O135   1.274       .  A
Mg109       O116   2.113       .  S
Mg109       O117   2.144       .  S
Mg109       O110   2.282       .  S
Mg109       O111   2.297       .  S
Mg109       O138   2.213       .  S
O111        C115   1.270       .  A
O112       Mg119   2.321       .  S
O113        C132   1.273       .  A
O114        C134   1.272       .  A
O114       Mg130   2.282       .  S
O116       Mg130   2.145       .  S
O116        C127   1.236       .  S
O117       Mg136   2.139       .  S
O118       Mg130   2.300       .  S
Mg119       O135   2.278       .  S
O120       Mg136   2.247       .  S
H121        C126   1.081       .  S
O122       Mg130   2.128       .  S
O122        C125   1.237       .  S
H123        C125   1.081       .  S
H124        C127   1.081       .  S
O129       Mg136   2.302       .  S
C132       C1282   1.474       .  S
C132        O137   1.275       .  A
O133        C134   1.275       .  A
C134       C1264   1.472       .  S
C139        C140   1.404       .  A
C139        C144   1.402       .  A
C139       C1298   1.483       .  S
C140        C141   1.405       .  A
C140        H145   1.082       .  S
C141        C142   1.404       .  A
C141       C1208   1.487       .  S
C142        C143   1.406       .  A
C142        H146   1.084       .  S
C143        C144   1.405       .  A
C143        C794   1.486       .  S
C144        H147   1.084       .  S
O148       Mg150   2.140       .  S
O148       Mg156   2.157       .  S
O148        C183   1.236       .  S
C149        H188   1.081       .  S
C149        O162   1.238       .  S
C149        O186   1.271       .  A
Mg150       O179   2.155       .  S
Mg150       O194   2.289       .  S
Mg150       O190   2.269       .  S
Mg150       O161   2.297       .  S
O151       Mg193   2.157       .  S
O151       Mg176   2.154       .  S
O151        C172   1.237       .  S
O152        C183   1.270       .  A
O152       Mg176   2.298       .  S
C153       C1660   1.477       .  S
C153        O155   1.270       .  A
C153        O167   1.280       .  A
O154        C182   1.270       .  A
O154       Mg156   2.294       .  S
O155       Mg187   2.238       .  S
Mg156       O162   2.143       .  S
Mg156       O170   2.277       .  S
Mg156       O158   2.303       .  S
C157       C1210   1.476       .  S
C157        O195   1.275       .  A
C157        O163   1.275       .  A
O158        C165   1.275       .  A
H159        C172   1.081       .  S
C160        H185   1.081       .  S
C160        O174   1.236       .  S
C160        O175   1.270       .  A
O161        C184   1.270       .  A
O162       Mg176   2.157       .  S
O163       Mg193   2.299       .  S
C164       C1552   1.483       .  S
C164        O177   1.275       .  A
C164        O169   1.275       .  A
C165       C1172   1.479       .  S
C165        O192   1.275       .  A
Mg166       O173   2.141       .  S
Mg166       O174   2.161       .  S
Mg166       O167   2.350       .  S
Mg166       O168   2.304       .  S
Mg166       O195   2.277       .  S
O168        C172   1.272       .  A
O169       Mg176   2.308       .  S
O170        C189   1.274       .  A
O171        C191   1.274       .  A
O171       Mg187   2.300       .  S
O173       Mg187   2.148       .  S
O173        C184   1.237       .  S
O174       Mg193   2.155       .  S
O175       Mg187   2.295       .  S
Mg176       O192   2.291       .  S
O177       Mg193   2.293       .  S
H178        C183   1.081       .  S
O179       Mg187   2.133       .  S
O179        C182   1.236       .  S
H180        C182   1.081       .  S
H181        C184   1.081       .  S
O186       Mg193   2.300       .  S
C189       C1156   1.475       .  S
C189        O194   1.272       .  A
O190        C191   1.272       .  A
C191       C1192   1.476       .  S
O196       Mg198   2.143       .  S
O196       Mg204   2.155       .  S
O196        C231   1.235       .  S
C197        H236   1.081       .  S
C197        O210   1.237       .  S
C197        O234   1.271       .  A
Mg198       O227   2.151       .  S
Mg198       O242   2.287       .  S
Mg198       O238   2.262       .  S
Mg198       O209   2.296       .  S
O199       Mg241   2.149       .  S
O199       Mg224   2.147       .  S
O199        C220   1.238       .  S
O200        C231   1.270       .  A
O200       Mg224   2.300       .  S
C201       C1102   1.476       .  S
C201        O203   1.273       .  A
C201        O215   1.279       .  A
O202        C230   1.272       .  A
O202       Mg204   2.306       .  S
O203       Mg235   2.259       .  S
Mg204       O210   2.144       .  S
Mg204       O218   2.286       .  S
Mg204       O206   2.326       .  S
C205       C1118   1.474       .  S
C205        O243   1.274       .  A
C205        O211   1.272       .  A
O206        C213   1.279       .  A
H207        C220   1.081       .  S
C208        H233   1.081       .  S
C208        O222   1.235       .  S
C208        O223   1.268       .  A
O209        C232   1.270       .  A
O210       Mg224   2.155       .  S
O211       Mg241   2.278       .  S
C212       C1498   1.478       .  S
C212        O225   1.269       .  A
C212        O217   1.277       .  A
C213       C1316   1.479       .  S
C213        O240   1.273       .  A
Mg214       O221   2.142       .  S
Mg214       O222   2.157       .  S
Mg214       O215   2.323       .  S
Mg214       O216   2.302       .  S
Mg214       O243   2.293       .  S
O216        C220   1.272       .  A
O217       Mg224   2.331       .  S
O218        C237   1.274       .  A
O219        C239   1.276       .  A
O219       Mg235   2.319       .  S
O221       Mg235   2.154       .  S
O221        C232   1.236       .  S
O222       Mg241   2.131       .  S
O223       Mg235   2.291       .  S
Mg224       O240   2.262       .  S
O225       Mg241   2.249       .  S
H226        C231   1.081       .  S
O227       Mg235   2.151       .  S
O227        C230   1.238       .  S
H228        C230   1.081       .  S
H229        C232   1.081       .  S
O234       Mg241   2.296       .  S
C237       C1622   1.476       .  S
C237        O242   1.272       .  A
O238        C239   1.271       .  A
C239       C1138   1.478       .  S
C244        C245   1.407       .  A
C244        C249   1.403       .  A
C244       C1136   1.488       .  S
C245        C246   1.408       .  A
C245        H250   1.081       .  S
C246        C247   1.404       .  A
C246       C1082   1.490       .  S
C247        C248   1.405       .  A
C247        H251   1.084       .  S
C248        C249   1.405       .  A
C248        C791   1.489       .  S
C249        H252   1.084       .  S
O253       Mg255   2.130       .  S
O253       Mg261   2.151       .  S
O253        C288   1.236       .  S
C254        H293   1.081       .  S
C254        O267   1.237       .  S
C254        O291   1.271       .  A
Mg255       O284   2.146       .  S
Mg255       O299   2.286       .  S
Mg255       O295   2.259       .  S
Mg255       O266   2.295       .  S
O256       Mg298   2.153       .  S
O256       Mg281   2.168       .  S
O256        C277   1.238       .  S
O257        C288   1.270       .  A
O257       Mg281   2.296       .  S
C258       C1514   1.480       .  S
C258        O260   1.271       .  A
C258        O272   1.278       .  A
O259        C287   1.270       .  A
O259       Mg261   2.295       .  S
O260       Mg292   2.254       .  S
Mg261       O267   2.149       .  S
Mg261       O275   2.292       .  S
Mg261       O263   2.281       .  S
C262       C1048   1.476       .  S
C262        O300   1.269       .  A
C262        O268   1.279       .  A
O263        C270   1.273       .  A
H264        C277   1.081       .  S
C265        H290   1.081       .  S
C265        O279   1.237       .  S
C265        O280   1.271       .  A
O266        C289   1.271       .  A
O267       Mg281   2.164       .  S
O268       Mg298   2.336       .  S
C269       C1532   1.481       .  S
C269        O282   1.272       .  A
C269        O274   1.280       .  A
C270       C1084   1.476       .  S
C270        O297   1.277       .  A
Mg271       O278   2.134       .  S
Mg271       O279   2.147       .  S
Mg271       O272   2.342       .  S
Mg271       O273   2.311       .  S
Mg271       O300   2.242       .  S
O273        C277   1.273       .  A
O274       Mg281   2.340       .  S
O275        C294   1.274       .  A
O276        C296   1.276       .  A
O276       Mg292   2.311       .  S
O278       Mg292   2.144       .  S
O278        C289   1.237       .  S
O279       Mg298   2.152       .  S
O280       Mg292   2.303       .  S
Mg281       O297   2.305       .  S
O282       Mg298   2.261       .  S
H283        C288   1.081       .  S
O284       Mg292   2.130       .  S
O284        C287   1.237       .  S
H285        C287   1.081       .  S
H286        C289   1.081       .  S
O291       Mg298   2.300       .  S
C294       C1568   1.475       .  S
C294        O299   1.272       .  A
O295        C296   1.270       .  A
C296       C1066   1.478       .  S
C301        C302   1.406       .  A
C301        C306   1.402       .  A
C301       C1190   1.487       .  S
C302        C303   1.406       .  A
C302        H307   1.081       .  S
C303        C304   1.402       .  A
C303       C1064   1.486       .  S
C304        C305   1.404       .  A
C304        H308   1.084       .  S
C305        C306   1.405       .  A
C305        C759   1.484       .  S
C306        H309   1.084       .  S
C310        C311   1.408       .  A
C310        C315   1.406       .  A
C310       C1028   1.493       .  S
C311        C312   1.406   1_556  A
C311        H316   1.081   1_556  S
C312        C313   1.399       .  A
C312       C1280   1.484       .  S
C313        C314   1.402   1_554  A
C313        H317   1.084       .  S
C314        C315   1.407       .  A
C314        C724   1.485       .  S
C315        H318   1.084       .  S
O319       Mg321   2.150       .  S
O319       Mg327   2.152       .  S
O319        C354   1.237       .  S
C320        H359   1.081       .  S
C320        O333   1.238       .  S
C320        O357   1.272       .  A
Mg321       O350   2.158       .  S
Mg321       O365   2.321       .  S
Mg321       O361   2.303       .  S
Mg321       O332   2.301       .  S
O322       Mg364   2.147       .  S
O322       Mg347   2.148       .  S
O322        C343   1.236       .  S
O323        C354   1.271       .  A
O323       Mg347   2.301       .  S
C324       C1390   1.471       .  S
C324        O326   1.269       .  A
C324        O338   1.277       .  A
O325        C353   1.270       .  A
O325       Mg327   2.296       .  S
O326       Mg358   2.240       .  S
Mg327       O333   2.150       .  S
Mg327       O341   2.271       .  S
Mg327       O329   2.335       .  S
C328        C994   1.482       .  S
C328        O366   1.273       .  A
C328        O334   1.276       .  A
O329        C336   1.279       .  A
H330        C343   1.081       .  S
C331        H356   1.081       .  S
C331        O345   1.235       .  S
C331        O346   1.268       .  A
O332        C355   1.272       .  A
O333       Mg347   2.143       .  S
O334       Mg364   2.301       .  S
C335        C974   1.470       .  S
C335        O348   1.268       .  A
C335        O340   1.276       .  A
C336       C1012   1.480       .  S
C336        O363   1.272       .  A
Mg337       O344   2.145       .  S
Mg337       O345   2.150       .  S
Mg337       O338   2.318       .  S
Mg337       O339   2.302       .  S
Mg337       O366   2.281       .  S
O339        C343   1.270       .  A
O340       Mg347   2.314       .  S
O341        C360   1.274       .  A
O342        C362   1.270       .  A
O342       Mg358   2.268       .  S
O344       Mg358   2.155       .  S
O344        C355   1.238       .  S
O345       Mg364   2.118       .  S
O346       Mg358   2.288       .  S
Mg347       O363   2.263       .  S
O348       Mg364   2.238       .  S
H349        C354   1.081       .  S
O350       Mg358   2.133       .  S
O350        C353   1.236       .  S
H351        C353   1.081       .  S
H352        C355   1.081       .  S
O357       Mg364   2.304       .  S
C360       C1442   1.480       .  S
C360        O365   1.279       .  A
O361        C362   1.275       .  A
C362       C1030   1.475       .  S
C367        C368   1.406       .  A
C367        C372   1.404       .  A
C367       C1010   1.488       .  S
C368        C369   1.407       .  A
C368        H373   1.082       .  S
C369        C370   1.403       .  A
C369        C956   1.489       .  S
C370        C371   1.405       .  A
C370        H374   1.084       .  S
C371        C372   1.406       .  A
C371        C793   1.488       .  S
C372        H375   1.084       .  S
O376       Mg378   2.140       .  S
O376       Mg384   2.148       .  S
O376        C411   1.238       .  S
C377        H416   1.081       .  S
C377        O390   1.235       .  S
C377        O414   1.269       .  A
Mg378       O407   2.157       .  S
Mg378       O422   2.327       .  S
Mg378       O418   2.273       .  S
Mg378       O389   2.304       .  S
O379       Mg421   2.158       .  S
O379       Mg404   2.132       .  S
O379        C400   1.236       .  S
O380        C411   1.271       .  A
O380       Mg404   2.298       .  S
C381       C1354   1.476       .  S
C381        O383   1.273       .  A
C381        O395   1.273       .  A
O382        C410   1.270       .  A
O382       Mg384   2.295       .  S
O383       Mg415   2.276       .  S
Mg384       O390   2.127       .  S
Mg384       O398   2.247       .  S
Mg384       O386   2.295       .  S
C385        C958   1.476       .  S
C385        O423   1.273       .  A
C385        O391   1.276       .  A
O386        C393   1.273       .  A
H387        C400   1.081       .  S
C388        H413   1.081       .  S
C388        O402   1.237       .  S
C388        O403   1.272       .  A
O389        C412   1.271       .  A
O390       Mg404   2.147       .  S
O391       Mg421   2.308       .  S
C392       C1642   1.476       .  S
C392        O405   1.276       .  A
C392        O397   1.275       .  A
C393        C940   1.475       .  S
C393        O420   1.273       .  A
Mg394       O401   2.149       .  S
Mg394       O402   2.155       .  S
Mg394       O395   2.293       .  S
Mg394       O396   2.293       .  S
Mg394       O423   2.267       .  S
O396        C400   1.269       .  A
O397       Mg404   2.296       .  S
O398        C417   1.270       .  A
O399        C419   1.275       .  A
O399       Mg415   2.304       .  S
O401       Mg415   2.154       .  S
O401        C412   1.237       .  S
O402       Mg421   2.148       .  S
O403       Mg415   2.303       .  S
Mg404       O420   2.275       .  S
O405       Mg421   2.286       .  S
H406        C411   1.081       .  S
O407       Mg415   2.138       .  S
O407        C410   1.237       .  S
H408        C410   1.081       .  S
H409        C412   1.081       .  S
O414       Mg421   2.290       .  S
C417       C1408   1.476       .  S
C417        O422   1.278       .  A
O418        C419   1.274       .  A
C419        C920   1.476       .  S
C424        C425   1.402       .  A
C424        C429   1.406       .  A
C424        C938   1.487       .  S
C425        C426   1.405       .  A
C425        H430   1.084       .  S
C426        C427   1.404       .  A
C426        C760   1.484       .  S
C427        C428   1.402       .  A
C427        H431   1.084       .  S
C428        C429   1.406       .  A
C428        C904   1.488       .  S
C429        H432   1.080       .  S
C433        C434   1.406       .  A
C433        C438   1.403       .  A
C433        C992   1.488       .  S
C434        C435   1.406       .  A
C434        H439   1.081       .  S
C435        C436   1.400       .  A
C435        C886   1.487       .  S
C436        C437   1.403       .  A
C436        H440   1.084       .  S
C437        C438   1.405       .  A
C437        C757   1.482       .  S
C438        H441   1.084       .  S
O442       Mg444   2.138       .  S
O442       Mg450   2.143       .  S
O442        C477   1.236       .  S
C443        H482   1.081       .  S
C443        O456   1.236       .  S
C443        O480   1.268       .  A
Mg444       O473   2.145       .  S
Mg444       O488   2.325       .  S
Mg444       O484   2.248       .  S
Mg444       O455   2.306       .  S
O445       Mg487   2.154       .  S
O445       Mg470   2.132       .  S
O445        C466   1.237       .  S
O446        C477   1.270       .  A
O446       Mg470   2.297       .  S
C447       C1606   1.478       .  S
C447        O449   1.273       .  A
C447        O461   1.278       .  A
O448        C476   1.272       .  A
O448       Mg450   2.305       .  S
O449       Mg481   2.268       .  S
Mg450       O456   2.119       .  S
Mg450       O464   2.241       .  S
Mg450       O452   2.309       .  S
C451        C884   1.471       .  S
C451        O489   1.275       .  A
C451        O457   1.270       .  A
O452        C459   1.277       .  A
H453        C466   1.081       .  S
C454        H479   1.081       .  S
C454        O468   1.236       .  S
C454        O469   1.271       .  A
O455        C478   1.272       .  A
O456       Mg470   2.149       .  S
O457       Mg487   2.268       .  S
C458       C1480   1.478       .  S
C458        O471   1.271       .  A
C458        O463   1.275       .  A
C459        C848   1.477       .  S
C459        O486   1.271       .  A
Mg460       O467   2.157       .  S
Mg460       O468   2.157       .  S
Mg460       O461   2.322       .  S
Mg460       O462   2.299       .  S
Mg460       O489   2.296       .  S
O462        C466   1.271       .  A
O463       Mg470   2.296       .  S
O464        C483   1.269       .  A
O465        C485   1.279       .  A
O465       Mg481   2.341       .  S
O467       Mg481   2.151       .  S
O467        C478   1.237       .  S
O468       Mg487   2.143       .  S
O469       Mg481   2.302       .  S
Mg470       O486   2.261       .  S
O471       Mg487   2.270       .  S
H472        C477   1.081       .  S
O473       Mg481   2.151       .  S
O473        C476   1.238       .  S
H474        C476   1.081       .  S
H475        C478   1.081       .  S
O480       Mg487   2.286       .  S
C483       C1424   1.474       .  S
C483        O488   1.277       .  A
O484        C485   1.270       .  A
C485        C866   1.478       .  S
C490        C491   1.406       .  A
C490        C495   1.404       .  A
C490        C868   1.488       .  S
C491        C492   1.406       .  A
C491        H496   1.081       .  S
C492        C493   1.404       .  A
C492        C830   1.490       .  S
C493        C494   1.406       .  A
C493        H497   1.084       .  S
C494        C495   1.407       .  A
C494        C792   1.489       .  S
C495        H498   1.084       .  S
O499       Mg501   2.149       .  S
O499       Mg507   2.161       .  S
O499        C534   1.236       .  S
C500        H539   1.081       .  S
C500        O513   1.238       .  S
C500        O537   1.273       .  A
Mg501       O530   2.150       .  S
Mg501       O545   2.294       .  S
Mg501       O541   2.298       .  S
Mg501       O512   2.300       .  S
O502       Mg544   2.143       .  S
O502       Mg527   2.136       .  S
O502        C523   1.237       .  S
O503        C534   1.271       .  A
O503       Mg527   2.300       .  S
C504       C1462   1.477       .  S
C504        O506   1.270       .  A
C504        O518   1.279       .  A
O505        C533   1.271       .  A
O505       Mg507   2.302       .  S
O506       Mg538   2.246       .  S
Mg507       O513   2.156       .  S
Mg507       O521   2.293       .  S
Mg507       O509   2.346       .  S
C508        C902   1.473       .  S
C508        O546   1.275       .  A
C508        O514   1.274       .  A
O509        C516   1.280       .  A
H510        C523   1.081       .  S
C511        H536   1.081       .  S
C511        O525   1.236       .  S
C511        O526   1.269       .  A
O512        C535   1.272       .  A
O513       Mg527   2.150       .  S
O514       Mg544   2.296       .  S
C515       C1588   1.482       .  S
C515        O528   1.271       .  A
C515        O520   1.275       .  A
C516        C832   1.475       .  S
C516        O543   1.269       .  A
Mg517       O524   2.143       .  S
Mg517       O525   2.155       .  S
Mg517       O518   2.341       .  S
Mg517       O519   2.301       .  S
Mg517       O546   2.275       .  S
O519        C523   1.271       .  A
O520       Mg527   2.315       .  S
O521        C540   1.276       .  A
O522        C542   1.273       .  A
O522       Mg538   2.292       .  S
O524       Mg538   2.149       .  S
O524        C535   1.238       .  S
O525       Mg544   2.133       .  S
O526       Mg538   2.289       .  S
Mg527       O543   2.236       .  S
O528       Mg544   2.270       .  S
H529        C534   1.081       .  S
O530       Mg538   2.138       .  S
O530        C533   1.237       .  S
H531        C533   1.081       .  S
H532        C535   1.081       .  S
O537       Mg544   2.304       .  S
C540       C1372   1.476       .  S
C540        O545   1.275       .  A
O541        C542   1.274       .  A
C542        C812   1.479       .  S
C547        C548   1.403       .  A
C547        C552   1.407   1_556  A
C547        C922   1.489       .  S
C548        C549   1.404   1_556  A
C548        H553   1.084       .  S
C549        C550   1.405       .  A
C549        C723   1.485   1_554  S
C550        C551   1.403       .  A
C550        H554   1.084       .  S
C551        C552   1.408       .  A
C551       C1174   1.489       .  S
C552        H555   1.081       .  S
C556        C557   1.399       .  A
C556        C561   1.403   1_556  A
C556        C850   1.482       .  S
C557        C558   1.402   1_556  A
C557        H562   1.084       .  S
C558        C559   1.409       .  A
C558        C725   1.484   1_554  S
C559        C560   1.405       .  A
C559        H563   1.084       .  S
C560        C561   1.407       .  A
C560       C1120   1.491       .  S
C561        H564   1.082       .  S
C565        C566   1.406       .  A
C565        C570   1.406       .  A
C565        C814   1.492       .  S
C566        C567   1.404   1_556  A
C566        H571   1.082       .  S
C567        C568   1.402       .  A
C567       C1046   1.485       .  S
C568        C569   1.406   1_554  A
C568        H572   1.084       .  S
C569        C570   1.408       .  A
C569        C726   1.489       .  S
C570        H573   1.084       .  S
C574        C575   1.406       .  A
C574        C579   1.400       .  A
C574       C1244   1.485       .  S
C575        C576   1.405       .  A
C575        H580   1.082       .  S
C576        C577   1.402       .  A
C576       C1100   1.485       .  S
C577        C578   1.405   1_545  A
C577        H581   1.084       .  S
C578        C579   1.403   1_565  A
C578        C655   1.484       .  S
C579        H582   1.084   1_545  S
C583        C584   1.401       .  A
C583        C588   1.407       .  A
C583       C1262   1.485       .  S
C584        C585   1.403       .  A
C584        H589   1.084       .  S
C585        C586   1.403       .  A
C585        C692   1.481       .  S
C586        C587   1.402       .  A
C586        H590   1.084       .  S
C587        C588   1.406       .  A
C587       C1154   1.488       .  S
C588        H591   1.081       .  S
C592        C593   1.399   1_545  A
C592        C597   1.403       .  A
C592        C976   1.479       .  S
C593        C594   1.403       .  A
C593        H598   1.084       .  S
C594        C595   1.403       .  A
C594        C621   1.479       .  S
C595        C596   1.400   1_565  A
C595        H599   1.084       .  S
C596        C597   1.404       .  A
C596       C1228   1.483       .  S
C597        H600   1.083       .  S
N601        C606   1.351       .  A
N601        C605   1.353       .  A
N601        H633   1.035       .  S
N602        C609   1.351       .  A
N602        C610   1.351       .  A
N603        C608   1.355       .  A
N603        C607   1.356       .  A
N603        H634   1.034       .  S
N604        C611   1.354       .  A
N604        C612   1.353       .  A
C605        C613   1.386       .  A
C605        C621   1.412       .  A
C606        C622   1.415       .  A
C606        C614   1.389       .  A
C607        C615   1.387   1_455  A
C607        C624   1.422       .  A
C608        C623   1.422       .  A
C608        C616   1.388   1_455  A
C609        C621   1.412       .  A
C609        C617   1.386   1_565  A
C610        C624   1.415       .  A
C610        C618   1.388   1_565  A
C611        C619   1.385       .  A
C611        C622   1.416       .  A
C612        C620   1.388       .  A
C612        C623   1.420       .  A
C613        C614   1.370       .  A
C613        H625   1.082       .  S
C614        H626   1.082       .  S
C615        C616   1.376       .  A
C615        H627   1.082       .  S
C616        H628   1.082       .  S
C617        C618   1.371       .  A
C617        H629   1.082       .  S
C618        H630   1.082       .  S
C619        C620   1.376       .  A
C619        H631   1.082       .  S
C620        H632   1.082       .  S
N635        C640   1.355       .  A
N635        C639   1.354   1_556  A
N635        H667   1.037       .  S
N636        C643   1.352       .  A
N636        C644   1.354       .  A
N637        C642   1.354       .  A
N637        C641   1.356   1_556  A
N637        H668   1.036       .  S
N638        C645   1.354       .  A
N638        C646   1.351       .  A
C639        C647   1.388   1_565  A
C639        C655   1.418       .  A
C640        C656   1.417       .  A
C640        C648   1.387   1_565  A
C641        C649   1.387       .  A
C641        C658   1.419       .  A
C642        C657   1.419       .  A
C642        C650   1.388       .  A
C643        C655   1.417       .  A
C643        C651   1.388       .  A
C644        C658   1.416       .  A
C644        C652   1.386       .  A
C645        C653   1.385       .  A
C645        C656   1.414       .  A
C646        C654   1.388       .  A
C646        C657   1.417       .  A
C647        C648   1.374   1_554  A
C647        H659   1.082       .  S
C648        H660   1.082       .  S
C649        C650   1.376   1_554  A
C649        H661   1.082       .  S
C650        H662   1.082       .  S
C651        C652   1.372       .  A
C651        H663   1.082       .  S
C652        H664   1.082       .  S
C653        C654   1.374       .  A
C653        H665   1.082       .  S
C654        H666   1.082       .  S
N669        C674   1.352       .  A
N669        C673   1.354       .  A
N669        H701   1.036       .  S
N670        C677   1.352       .  A
N670        C678   1.351   1_556  A
N671        C676   1.354       .  A
N671        C675   1.353       .  A
N671        H702   1.036       .  S
N672        C679   1.353       .  A
N672        C680   1.354   1_556  A
C673        C681   1.386       .  A
C673        C689   1.415       .  A
C674        C690   1.418       .  A
C674        C682   1.389       .  A
C675        C683   1.387       .  A
C675        C692   1.417       .  A
C676        C691   1.418       .  A
C676        C684   1.387       .  A
C677        C689   1.413       .  A
C677        C685   1.386       .  A
C678        C692   1.414       .  A
C678        C686   1.387       .  A
C679        C687   1.388   1_455  A
C679        C690   1.419       .  A
C680        C688   1.385   1_455  A
C680        C691   1.417       .  A
C681        C682   1.376       .  A
C681        H693   1.082       .  S
C682        H694   1.082       .  S
C683        C684   1.376       .  A
C683        H695   1.082       .  S
C684        H696   1.082       .  S
C685        C686   1.371   1_556  A
C685        H697   1.082       .  S
C686        H698   1.082       .  S
C687        C688   1.373   1_556  A
C687        H699   1.082       .  S
C688        H700   1.082       .  S
N703        C708   1.354   1_556  A
N703        C707   1.354   1_556  A
N703        H735   1.037       .  S
N704        C711   1.352       .  A
N704        C712   1.353       .  A
N705        C710   1.354   1_556  A
N705        C709   1.355       .  A
N705        H736   1.035       .  S
N706        C713   1.352       .  A
N706        C714   1.351       .  A
C707        C715   1.387       .  A
C707        C723   1.418   1_554  A
C708        C724   1.418   1_554  A
C708        C716   1.387       .  A
C709        C717   1.387   1_556  A
C709        C726   1.421       .  A
C710        C725   1.419   1_554  A
C710        C718   1.387       .  A
C711        C723   1.415       .  A
C711        C719   1.386       .  A
C712        C726   1.417       .  A
C712        C720   1.387       .  A
C713        C721   1.386       .  A
C713        C724   1.414       .  A
C714        C722   1.387       .  A
C714        C725   1.416       .  A
C715        C716   1.377       .  A
C715        H727   1.082       .  S
C716        H728   1.082       .  S
C717        C718   1.378       .  A
C717        H729   1.082       .  S
C718        H730   1.082       .  S
C719        C720   1.370       .  A
C719        H731   1.082       .  S
C720        H732   1.082       .  S
C721        C722   1.370       .  A
C721        H733   1.082       .  S
C722        H734   1.082       .  S
N737        C742   1.354       .  A
N737        C741   1.353       .  A
N737        H769   1.037       .  S
N738        C745   1.352       .  A
N738        C746   1.352       .  A
N739        C744   1.354       .  A
N739        C743   1.354       .  A
N739        H770   1.035       .  S
N740        C747   1.352       .  A
N740        C748   1.352       .  A
C741        C749   1.387       .  A
C741        C757   1.416       .  A
C742        C758   1.417       .  A
C742        C750   1.388       .  A
C743        C751   1.388       .  A
C743        C760   1.419       .  A
C744        C759   1.419       .  A
C744        C752   1.387       .  A
C745        C757   1.414       .  A
C745        C753   1.386       .  A
C746        C760   1.416       .  A
C746        C754   1.387       .  A
C747        C755   1.385       .  A
C747        C758   1.413       .  A
C748        C756   1.387       .  A
C748        C759   1.416       .  A
C749        C750   1.372       .  A
C749        H761   1.082       .  S
C750        H762   1.082       .  S
C751        C752   1.375       .  A
C751        H763   1.082       .  S
C752        H764   1.082       .  S
C753        C754   1.373       .  A
C753        H765   1.082       .  S
C754        H766   1.082       .  S
C755        C756   1.372       .  A
C755        H767   1.082       .  S
C756        H768   1.082       .  S
N771        C776   1.356       .  A
N771        C775   1.356       .  A
N771        H803   1.032       .  S
N772        C779   1.353       .  A
N772        C780   1.353       .  A
N773        C778   1.355       .  A
N773        C777   1.355       .  A
N773        H804   1.032       .  S
N774        C781   1.353       .  A
N774        C782   1.353       .  A
C775        C783   1.388       .  A
C775        C791   1.422       .  A
C776        C792   1.420       .  A
C776        C784   1.387       .  A
C777        C785   1.387       .  A
C777        C794   1.419       .  A
C778        C793   1.419       .  A
C778        C786   1.387       .  A
C779        C791   1.418       .  A
C779        C787   1.388       .  A
C780        C794   1.416       .  A
C780        C788   1.386       .  A
C781        C789   1.387       .  A
C781        C792   1.417       .  A
C782        C790   1.386       .  A
C782        C793   1.416       .  A
C783        C784   1.376       .  A
C783        H795   1.082       .  S
C784        H796   1.082       .  S
C785        C786   1.375       .  A
C785        H797   1.082       .  S
C786        H798   1.082       .  S
C787        C788   1.372       .  A
C787        H799   1.082       .  S
C788        H800   1.082       .  S
C789        C790   1.371       .  A
C789        H801   1.082       .  S
C790        H802   1.082       .  S
C805        C806   1.402       .  A
C805        C810   1.409       .  A
C805        C813   1.489       .  S
C806        C807   1.395       .  A
C806        H815   1.084       .  S
C807        C808   1.407       .  A
C807        H816   1.082       .  S
C808        C809   1.406       .  A
C808        C811   1.493       .  S
C809        C810   1.406       .  A
C809        H817   1.083       .  S
C810        H818   1.082       .  S
C811        H819   1.086       .  S
C811        C812   1.347       .  D
C812        H820   1.086       .  S
C813        H821   1.086       .  S
C813        C814   1.349       .  D
C814        H822   1.085       .  S
C823        C824   1.404       .  A
C823        C828   1.407       .  A
C823        C831   1.488       .  S
C824        C825   1.403       .  A
C824        H833   1.083       .  S
C825        C826   1.409       .  A
C825        H834   1.082       .  S
C826        C827   1.402       .  A
C826        C829   1.486       .  S
C827        C828   1.395       .  A
C827        H835   1.084       .  S
C828        H836   1.082       .  S
C829        H837   1.086       .  S
C829        C830   1.349       .  D
C830        H838   1.085       .  S
C831        H839   1.086       .  S
C831        C832   1.344       .  D
C832        H840   1.087       .  S
C841        C842   1.407       .  A
C841        C846   1.401       .  A
C841        C849   1.482       .  S
C842        C843   1.401       .  A
C842        H851   1.082       .  S
C843        C844   1.410       .  A
C843        H852   1.080       .  S
C844        C845   1.403       .  A
C844        C847   1.488       .  S
C845        C846   1.394       .  A
C845        H853   1.083       .  S
C846        H854   1.084       .  S
C847        H855   1.087       .  S
C847        C848   1.346       .  D
C848        H856   1.083       .  S
C849        H857   1.087       .  S
C849        C850   1.346       .  D
C850        H858   1.085       .  S
C859        C860   1.403       .  A
C859        C864   1.408       .  A
C859        C867   1.487   1_545  S
C860        C861   1.396       .  A
C860        H869   1.084       .  S
C861        C862   1.407       .  A
C861        H870   1.082       .  S
C862        C863   1.405       .  A
C862        C865   1.490       .  S
C863        C864   1.404       .  A
C863        H871   1.083       .  S
C864        H872   1.082       .  S
C865        H873   1.087       .  S
C865        C866   1.345       .  D
C866        H874   1.086       .  S
C867        H875   1.087       .  S
C867        C868   1.348       .  D
C868        H876   1.085       .  S
C877        C878   1.401   1_455  A
C877        C882   1.409   1_455  A
C877        C885   1.484       .  S
C878        C879   1.391       .  A
C878        H887   1.084   1_655  S
C879        C880   1.407       .  A
C879        H888   1.082       .  S
C880        C881   1.404       .  A
C880        C883   1.487       .  S
C881        C882   1.404       .  A
C881        H889   1.083       .  S
C882        H890   1.081       .  S
C883        H891   1.086       .  S
C883        C884   1.344       .  D
C884        H892   1.086       .  S
C885        H893   1.086       .  S
C885        C886   1.346       .  D
C886        H894   1.085       .  S
C895        C896   1.402       .  A
C895        C900   1.409   1_455  A
C895        C903   1.486       .  S
C896        C897   1.393   1_455  A
C896        H905   1.084       .  S
C897        C898   1.407       .  A
C897        H906   1.081       .  S
C898        C899   1.404       .  A
C898        C901   1.486       .  S
C899        C900   1.401       .  A
C899        H907   1.083       .  S
C900        H908   1.081       .  S
C901        H909   1.087       .  S
C901        C902   1.345       .  D
C902        H910   1.085       .  S
C903        H911   1.085       .  S
C903        C904   1.348       .  D
C904        H912   1.084       .  S
C913        C914   1.402       .  A
C913        C918   1.408       .  A
C913        C921   1.488       .  S
C914        C915   1.395       .  A
C914        H923   1.084       .  S
C915        C916   1.408       .  A
C915        H924   1.081       .  S
C916        C917   1.405       .  A
C916        C919   1.490       .  S
C917        C918   1.402       .  A
C917        H925   1.083       .  S
C918        H926   1.081       .  S
C919        H927   1.087       .  S
C919        C920   1.347       .  D
C920        H928   1.084       .  S
C921        H929   1.086       .  S
C921        C922   1.348       .  D
C922        H930   1.085       .  S
C931        C932   1.405       .  A
C931        C936   1.408       .  A
C931        C939   1.490       .  S
C932        C933   1.402       .  A
C932        H941   1.083       .  S
C933        C934   1.408       .  A
C933        H942   1.081       .  S
C934        C935   1.402       .  A
C934        C937   1.486       .  S
C935        C936   1.394       .  A
C935        H943   1.084       .  S
C936        H944   1.080       .  S
C937        H945   1.086       .  S
C937        C938   1.348       .  D
C938        H946   1.085       .  S
C939        H947   1.087       .  S
C939        C940   1.347       .  D
C940        H948   1.084       .  S
C949        C950   1.405       .  A
C949        C954   1.407       .  A
C949        C957   1.488       .  S
C950        C951   1.403       .  A
C950        H959   1.083       .  S
C951        C952   1.408       .  A
C951        H960   1.082       .  S
C952        C953   1.402       .  A
C952        C955   1.486       .  S
C953        C954   1.394       .  A
C953        H961   1.084       .  S
C954        H962   1.081       .  S
C955        H963   1.086       .  S
C955        C956   1.347       .  D
C956        H964   1.085       .  S
C957        H965   1.087       .  S
C957        C958   1.348       .  D
C958        H966   1.085       .  S
C967        C968   1.400       .  A
C967        C972   1.406       .  A
C967        C975   1.476       .  S
C968        C969   1.393       .  A
C968        H977   1.084       .  S
C969        C970   1.407       .  A
C969        H978   1.082       .  S
C970        C971   1.403       .  A
C970        C973   1.481       .  S
C971        C972   1.399       .  A
C971        H979   1.083       .  S
C972        H980   1.082       .  S
C973        H981   1.087       .  S
C973        C974   1.342       .  D
C974        H982   1.086       .  S
C975        H983   1.087       .  S
C975        C976   1.344       .  D
C976        H984   1.086       .  S
C985        C986   1.403       .  A
C985        C990   1.409       .  A
C985        C993   1.489       .  S
C986        C987   1.394       .  A
C986        H995   1.084       .  S
C987        C988   1.402       .  A
C987        H996   1.084       .  S
C988        C989   1.409       .  A
C988        C991   1.487       .  S
C989        C990   1.404       .  A
C989        H997   1.081       .  S
C990        H998   1.081       .  S
C991        H999   1.087       .  S
C991        C992   1.348       .  D
C992       H1000   1.084       .  S
C993       H1001   1.087       .  S
C993        C994   1.349       .  D
C994       H1002   1.084       .  S
C1003      C1004   1.405       .  A
C1003      C1008   1.407       .  A
C1003      C1011   1.490       .  S
C1004      C1005   1.403       .  A
C1004      H1013   1.083       .  S
C1005      C1006   1.408   1_545  A
C1005      H1014   1.082       .  S
C1006      C1007   1.403   1_565  A
C1006      C1009   1.487       .  S
C1007      C1008   1.398       .  A
C1007      H1015   1.083   1_545  S
C1008      H1016   1.082       .  S
C1009      H1017   1.087       .  S
C1009      C1010   1.348       .  D
C1010      H1018   1.086       .  S
C1011      H1019   1.087       .  S
C1011      C1012   1.347       .  D
C1012      H1020   1.086       .  S
C1021      C1022   1.404       .  A
C1021      C1026   1.406       .  A
C1021      C1029   1.490       .  S
C1022      C1023   1.405       .  A
C1022      H1031   1.083       .  S
C1023      C1024   1.411       .  A
C1023      H1032   1.080       .  S
C1024      C1025   1.404       .  A
C1024      C1027   1.491       .  S
C1025      C1026   1.394       .  A
C1025      H1033   1.084       .  S
C1026      H1034   1.083       .  S
C1027      H1035   1.085       .  S
C1027      C1028   1.350       .  D
C1028      H1036   1.084       .  S
C1029      H1037   1.086       .  S
C1029      C1030   1.344       .  D
C1030      H1038   1.087       .  S
C1039      C1040   1.404       .  A
C1039      C1044   1.407       .  A
C1039      C1047   1.487       .  S
C1040      C1041   1.402       .  A
C1040      H1049   1.083       .  S
C1041      C1042   1.407       .  A
C1041      H1050   1.082       .  S
C1042      C1043   1.401       .  A
C1042      C1045   1.482       .  S
C1043      C1044   1.396       .  A
C1043      H1051   1.084       .  S
C1044      H1052   1.082       .  S
C1045      H1053   1.087       .  S
C1045      C1046   1.346       .  D
C1046      H1054   1.086       .  S
C1047      H1055   1.087       .  S
C1047      C1048   1.344       .  D
C1048      H1056   1.086       .  S
C1057      C1058   1.403       .  A
C1057      C1062   1.411       .  A
C1057      C1065   1.489       .  S
C1058      C1059   1.395       .  A
C1058      H1067   1.083       .  S
C1059      C1060   1.402       .  A
C1059      H1068   1.084   1_655  S
C1060      C1061   1.407       .  A
C1060      C1063   1.484   1_655  S
C1061      C1062   1.402       .  A
C1061      H1069   1.082       .  S
C1062      H1070   1.080       .  S
C1063      H1071   1.086       .  S
C1063      C1064   1.347       .  D
C1064      H1072   1.085       .  S
C1065      H1073   1.087       .  S
C1065      C1066   1.346       .  D
C1066      H1074   1.084       .  S
C1075      C1076   1.404       .  A
C1075      C1080   1.407       .  A
C1075      C1083   1.491       .  S
C1076      C1077   1.405       .  A
C1076      H1085   1.083       .  S
C1077      C1078   1.410       .  A
C1077      H1086   1.081       .  S
C1078      C1079   1.402       .  A
C1078      C1081   1.490       .  S
C1079      C1080   1.394       .  A
C1079      H1087   1.084       .  S
C1080      H1088   1.082       .  S
C1081      H1089   1.086       .  S
C1081      C1082   1.348       .  D
C1082      H1090   1.084       .  S
C1083      H1091   1.086       .  S
C1083      C1084   1.345       .  D
C1084      H1092   1.086       .  S
C1093      C1094   1.405       .  A
C1093      C1098   1.407       .  A
C1093      C1101   1.488       .  S
C1094      C1095   1.402       .  A
C1094      H1103   1.083       .  S
C1095      C1096   1.407       .  A
C1095      H1104   1.082       .  S
C1096      C1097   1.401       .  A
C1096      C1099   1.482       .  S
C1097      C1098   1.395       .  A
C1097      H1105   1.084       .  S
C1098      H1106   1.081       .  S
C1099      H1107   1.087       .  S
C1099      C1100   1.346       .  D
C1100      H1108   1.086       .  S
C1101      H1109   1.087       .  S
C1101      C1102   1.346       .  D
C1102      H1110   1.085       .  S
C1111      C1112   1.403       .  A
C1111      C1116   1.410       .  A
C1111      C1119   1.489       .  S
C1112      C1113   1.392       .  A
C1112      H1121   1.084       .  S
C1113      C1114   1.405       .  A
C1113      H1122   1.082       .  S
C1114      C1115   1.405       .  A
C1114      C1117   1.489       .  S
C1115      C1116   1.406       .  A
C1115      H1123   1.083       .  S
C1116      H1124   1.080       .  S
C1117      H1125   1.086       .  S
C1117      C1118   1.345       .  D
C1118      H1126   1.086       .  S
C1119      H1127   1.086       .  S
C1119      C1120   1.349       .  D
C1120      H1128   1.084       .  S
C1129      C1130   1.403       .  A
C1129      C1134   1.406       .  A
C1129      C1137   1.484       .  S
C1130      C1131   1.402       .  A
C1130      H1139   1.083       .  S
C1131      C1132   1.408       .  A
C1131      H1140   1.082       .  S
C1132      C1133   1.403       .  A
C1132      C1135   1.486   1_545  S
C1133      C1134   1.397       .  A
C1133      H1141   1.083   1_545  S
C1134      H1142   1.083       .  S
C1135      H1143   1.087       .  S
C1135      C1136   1.348       .  D
C1136      H1144   1.086       .  S
C1137      H1145   1.087       .  S
C1137      C1138   1.345       .  D
C1138      H1146   1.087       .  S
C1147      C1148   1.404       .  A
C1147      C1152   1.407       .  A
C1147      C1155   1.487       .  S
C1148      C1149   1.400       .  A
C1148      H1157   1.083       .  S
C1149      C1150   1.408       .  A
C1149      H1158   1.081       .  S
C1150      C1151   1.403       .  A
C1150      C1153   1.487       .  S
C1151      C1152   1.396       .  A
C1151      H1159   1.084       .  S
C1152      H1160   1.081       .  S
C1153      H1161   1.086       .  S
C1153      C1154   1.348       .  D
C1154      H1162   1.085       .  S
C1155      H1163   1.087       .  S
C1155      C1156   1.345       .  D
C1156      H1164   1.085       .  S
C1165      C1166   1.402       .  A
C1165      C1170   1.408       .  A
C1165      C1173   1.487       .  S
C1166      C1167   1.394       .  A
C1166      H1175   1.084       .  S
C1167      C1168   1.408       .  A
C1167      H1176   1.081       .  S
C1168      C1169   1.407       .  A
C1168      C1171   1.494       .  S
C1169      C1170   1.405       .  A
C1169      H1177   1.083       .  S
C1170      H1178   1.082       .  S
C1171      H1179   1.087       .  S
C1171      C1172   1.348       .  D
C1172      H1180   1.085       .  S
C1173      H1181   1.087       .  S
C1173      C1174   1.348       .  D
C1174      H1182   1.085       .  S
C1183      C1184   1.405       .  A
C1183      C1188   1.408       .  A
C1183      C1191   1.489       .  S
C1184      C1185   1.402       .  A
C1184      H1193   1.083       .  S
C1185      C1186   1.408       .  A
C1185      H1194   1.081       .  S
C1186      C1187   1.402       .  A
C1186      C1189   1.485       .  S
C1187      C1188   1.395       .  A
C1187      H1195   1.084       .  S
C1188      H1196   1.081       .  S
C1189      H1197   1.086       .  S
C1189      C1190   1.348       .  D
C1190      H1198   1.085       .  S
C1191      H1199   1.087       .  S
C1191      C1192   1.347       .  D
C1192      H1200   1.084       .  S
C1201      C1202   1.405       .  A
C1201      C1206   1.408       .  A
C1201      C1209   1.490       .  S
C1202      C1203   1.401       .  A
C1202      H1211   1.083       .  S
C1203      C1204   1.407       .  A
C1203      H1212   1.081       .  S
C1204      C1205   1.403       .  A
C1204      C1207   1.485       .  S
C1205      C1206   1.396       .  A
C1205      H1213   1.084       .  S
C1206      H1214   1.081       .  S
C1207      H1215   1.087       .  S
C1207      C1208   1.348       .  D
C1208      H1216   1.085       .  S
C1209      H1217   1.087       .  S
C1209      C1210   1.346       .  D
C1210      H1218   1.084       .  S
C1219      C1220   1.401       .  A
C1219      C1224   1.409       .  A
C1219      C1227   1.482       .  S
C1220      C1221   1.391       .  A
C1220      H1229   1.084       .  S
C1221      C1222   1.405       .  A
C1221      H1230   1.083       .  S
C1222      C1223   1.403       .  A
C1222      C1225   1.483       .  S
C1223      C1224   1.403       .  A
C1223      H1231   1.083       .  S
C1224      H1232   1.081       .  S
C1225      H1233   1.086       .  S
C1225      C1226   1.341       .  D
C1226      H1234   1.088       .  S
C1227      H1235   1.087       .  S
C1227      C1228   1.345       .  D
C1228      H1236   1.085       .  S
C1237      C1238   1.405       .  A
C1237      C1242   1.408       .  A
C1237      C1245   1.489       .  S
C1238      C1239   1.402       .  A
C1238      H1247   1.083       .  S
C1239      C1240   1.408       .  A
C1239      H1248   1.081       .  S
C1240      C1241   1.401       .  A
C1240      C1243   1.484       .  S
C1241      C1242   1.393       .  A
C1241      H1249   1.084       .  S
C1242      H1250   1.080       .  S
C1243      H1251   1.086       .  S
C1243      C1244   1.346       .  D
C1244      H1252   1.085       .  S
C1245      H1253   1.087       .  S
C1245      C1246   1.346       .  D
C1246      H1254   1.084       .  S
C1255      C1256   1.404       .  A
C1255      C1260   1.407       .  A
C1255      C1263   1.487       .  S
C1256      C1257   1.402       .  A
C1256      H1265   1.083       .  S
C1257      C1258   1.410       .  A
C1257      H1266   1.080       .  S
C1258      C1259   1.402       .  A
C1258      C1261   1.486       .  S
C1259      C1260   1.392       .  A
C1259      H1267   1.084       .  S
C1260      H1268   1.081       .  S
C1261      H1269   1.087       .  S
C1261      C1262   1.346       .  D
C1262      H1270   1.084       .  S
C1263      H1271   1.087       .  S
C1263      C1264   1.344       .  D
C1264      H1272   1.085       .  S
C1273      C1274   1.405       .  A
C1273      C1278   1.407       .  A
C1273      C1281   1.487       .  S
C1274      C1275   1.402       .  A
C1274      H1283   1.083       .  S
C1275      C1276   1.408       .  A
C1275      H1284   1.082       .  S
C1276      C1277   1.401       .  A
C1276      C1279   1.483       .  S
C1277      C1278   1.393       .  A
C1277      H1285   1.084       .  S
C1278      H1286   1.081       .  S
C1279      H1287   1.087       .  S
C1279      C1280   1.345       .  D
C1280      H1288   1.085       .  S
C1281      H1289   1.087       .  S
C1281      C1282   1.347       .  D
C1282      H1290   1.085       .  S
C1291      C1292   1.402       .  A
C1291      C1296   1.408       .  A
C1291      C1299   1.482       .  S
C1292      C1293   1.394       .  A
C1292      H1301   1.084       .  S
C1293      C1294   1.401       .  A
C1293      H1302   1.084   1_545  S
C1294      C1295   1.407       .  A
C1294      C1297   1.481   1_545  S
C1295      C1296   1.401       .  A
C1295      H1303   1.082       .  S
C1296      H1304   1.082       .  S
C1297      H1305   1.087       .  S
C1297      C1298   1.346       .  D
C1298      H1306   1.086       .  S
C1299      H1307   1.087       .  S
C1299      C1300   1.346       .  D
C1300      H1308   1.085       .  S
C1309      C1310   1.402       .  A
C1309      C1314   1.407       .  A
C1309      C1317   1.487   1_655  S
C1310      C1311   1.400       .  A
C1310      H1319   1.083       .  S
C1311      C1312   1.410       .  A
C1311      H1320   1.081       .  S
C1312      C1313   1.403       .  A
C1312      C1315   1.490       .  S
C1313      C1314   1.398       .  A
C1313      H1321   1.083       .  S
C1314      H1322   1.082       .  S
C1315      H1323   1.087       .  S
C1315      C1316   1.347       .  D
C1316      H1324   1.084       .  S
C1317      H1325   1.087   1_455  S
C1317      C1318   1.344       .  D
C1318      H1326   1.086       .  S
C1327      C1328   1.402       .  A
C1327      C1332   1.408       .  A
C1327      C1335   1.485       .  S
C1328      C1329   1.394       .  A
C1328      H1337   1.084       .  S
C1329      C1330   1.408       .  A
C1329      H1338   1.080       .  S
C1330      C1331   1.404       .  A
C1330      C1333   1.488       .  S
C1331      C1332   1.401       .  A
C1331      H1339   1.083       .  S
C1332      H1340   1.081       .  S
C1333      H1341   1.087       .  S
C1333      C1334   1.345       .  D
C1334      H1342   1.084       .  S
C1335      H1343   1.086       .  S
C1335      C1336   1.346       .  D
C1336      H1344   1.084       .  S
C1345      C1346   1.404       .  A
C1345      C1350   1.408       .  A
C1345      C1353   1.490       .  S
C1346      C1347   1.402       .  A
C1346      H1355   1.083       .  S
C1347      C1348   1.409       .  A
C1347      H1356   1.081       .  S
C1348      C1349   1.403       .  A
C1348      C1351   1.489       .  S
C1349      C1350   1.396       .  A
C1349      H1357   1.084       .  S
C1350      H1358   1.081       .  S
C1351      H1359   1.085       .  S
C1351      C1352   1.348       .  D
C1352      H1360   1.085       .  S
C1353      H1361   1.087       .  S
C1353      C1354   1.346       .  D
C1354      H1362   1.085       .  S
C1363      C1364   1.406       .  A
C1363      C1368   1.407       .  A
C1363      C1371   1.492       .  S
C1364      C1365   1.405       .  A
C1364      H1373   1.083       .  S
C1365      C1366   1.410       .  A
C1365      H1374   1.081       .  S
C1366      C1367   1.402       .  A
C1366      C1369   1.490       .  S
C1367      C1368   1.393       .  A
C1367      H1375   1.084       .  S
C1368      H1376   1.081       .  S
C1369      H1377   1.085       .  S
C1369      C1370   1.348       .  D
C1370      H1378   1.085       .  S
C1371      H1379   1.087       .  S
C1371      C1372   1.347       .  D
C1372      H1380   1.085       .  S
C1381      C1382   1.403       .  A
C1381      C1386   1.406       .  A
C1381      C1389   1.482       .  S
C1382      C1383   1.401       .  A
C1382      H1391   1.083       .  S
C1383      C1384   1.409       .  A
C1383      H1392   1.081       .  S
C1384      C1385   1.402       .  A
C1384      C1387   1.482       .  S
C1385      C1386   1.393       .  A
C1385      H1393   1.084       .  S
C1386      H1394   1.082       .  S
C1387      H1395   1.087       .  S
C1387      C1388   1.346       .  D
C1388      H1396   1.085       .  S
C1389      H1397   1.087       .  S
C1389      C1390   1.343       .  D
C1390      H1398   1.086       .  S
C1399      C1400   1.403       .  A
C1399      C1404   1.408       .  A
C1399      C1407   1.488       .  S
C1400      C1401   1.400       .  A
C1400      H1409   1.083       .  S
C1401      C1402   1.409       .  A
C1401      H1410   1.082       .  S
C1402      C1403   1.402       .  A
C1402      C1405   1.489       .  S
C1403      C1404   1.398       .  A
C1403      H1411   1.083       .  S
C1404      H1412   1.082       .  S
C1405      H1413   1.085       .  S
C1405      C1406   1.346       .  D
C1406      H1414   1.086       .  S
C1407      H1415   1.087       .  S
C1407      C1408   1.345       .  D
C1408      H1416   1.086       .  S
C1417      C1418   1.402       .  A
C1417      C1422   1.408       .  A
C1417      C1425   1.483       .  S
C1418      C1419   1.395       .  A
C1418      H1427   1.084       .  S
C1419      C1420   1.407       .  A
C1419      H1428   1.082       .  S
C1420      C1421   1.404       .  A
C1420      C1423   1.486       .  S
C1421      C1422   1.401       .  A
C1421      H1429   1.083       .  S
C1422      H1430   1.082       .  S
C1423      H1431   1.087       .  S
C1423      C1424   1.344       .  D
C1424      H1432   1.086       .  S
C1425      H1433   1.087       .  S
C1425      C1426   1.348       .  D
C1426      H1434   1.085       .  S
C1435      C1436   1.402       .  A
C1435      C1440   1.408       .  A
C1435      C1443   1.490       .  S
C1436      C1437   1.401       .  A
C1436      H1445   1.083       .  S
C1437      C1438   1.410       .  A
C1437      H1446   1.081       .  S
C1438      C1439   1.404       .  A
C1438      C1441   1.492       .  S
C1439      C1440   1.399       .  A
C1439      H1447   1.083       .  S
C1440      H1448   1.082       .  S
C1441      H1449   1.087       .  S
C1441      C1442   1.348       .  D
C1442      H1450   1.084       .  S
C1443      H1451   1.086       .  S
C1443      C1444   1.344       .  D
C1444      H1452   1.086       .  S
C1453      C1454   1.404       .  A
C1453      C1458   1.408       .  A
C1453      C1461   1.489       .  S
C1454      C1455   1.403       .  A
C1454      H1463   1.083       .  S
C1455      C1456   1.408       .  A
C1455      H1464   1.082       .  S
C1456      C1457   1.401       .  A
C1456      C1459   1.484       .  S
C1457      C1458   1.396       .  A
C1457      H1465   1.084       .  S
C1458      H1466   1.082       .  S
C1459      H1467   1.086       .  S
C1459      C1460   1.346       .  D
C1460      H1468   1.086       .  S
C1461      H1469   1.086       .  S
C1461      C1462   1.345       .  D
C1462      H1470   1.086       .  S
C1471      C1472   1.404       .  A
C1471      C1476   1.410       .  A
C1471      C1479   1.491       .  S
C1472      C1473   1.396       .  A
C1472      H1481   1.083       .  S
C1473      C1474   1.401       .  A
C1473      H1482   1.083       .  S
C1474      C1475   1.406       .  A
C1474      C1477   1.483       .  S
C1475      C1476   1.400       .  A
C1475      H1483   1.082       .  S
C1476      H1484   1.079       .  S
C1477      H1485   1.087       .  S
C1477      C1478   1.346       .  D
C1478      H1486   1.086       .  S
C1479      H1487   1.087       .  S
C1479      C1480   1.348       .  D
C1480      H1488   1.083       .  S
C1489      C1490   1.405       .  A
C1489      C1494   1.408       .  A
C1489      C1497   1.490       .  S
C1490      C1491   1.404       .  A
C1490      H1499   1.083       .  S
C1491      C1492   1.408       .  A
C1491      H1500   1.082       .  S
C1492      C1493   1.401       .  A
C1492      C1495   1.485       .  S
C1493      C1494   1.395       .  A
C1493      H1501   1.084       .  S
C1494      H1502   1.082       .  S
C1495      H1503   1.087       .  S
C1495      C1496   1.346       .  D
C1496      H1504   1.086       .  S
C1497      H1505   1.087       .  S
C1497      C1498   1.346       .  D
C1498      H1506   1.086       .  S
C1507      C1508   1.403       .  A
C1507      C1512   1.409       .  A
C1507      C1515   1.490       .  S
C1508      C1509   1.396       .  A
C1508      H1517   1.084       .  S
C1509      C1510   1.406       .  A
C1509      H1518   1.082       .  S
C1510      C1511   1.406       .  A
C1510      C1513   1.493       .  S
C1511      C1512   1.406       .  A
C1511      H1519   1.083       .  S
C1512      H1520   1.082       .  S
C1513      H1521   1.087       .  S
C1513      C1514   1.348       .  D
C1514      H1522   1.086       .  S
C1515      H1523   1.086       .  S
C1515      C1516   1.350       .  D
C1516      H1524   1.085       .  S
C1525      C1526   1.403       .  A
C1525      C1530   1.409       .  A
C1525      C1533   1.491       .  S
C1526      C1527   1.399       .  A
C1526      H1535   1.083       .  S
C1527      C1528   1.407       .  A
C1527      H1536   1.082       .  S
C1528      C1529   1.405       .  A
C1528      C1531   1.491       .  S
C1529      C1530   1.404       .  A
C1529      H1537   1.083       .  S
C1530      H1538   1.082       .  S
C1531      H1539   1.087       .  S
C1531      C1532   1.347       .  D
C1532      H1540   1.086       .  S
C1533      H1541   1.086       .  S
C1533      C1534   1.349       .  D
C1534      H1542   1.086       .  S
C1543      C1544   1.406       .  A
C1543      C1548   1.407       .  A
C1543      C1551   1.495       .  S
C1544      C1545   1.406       .  A
C1544      H1553   1.083       .  S
C1545      C1546   1.411       .  A
C1545      H1554   1.081       .  S
C1546      C1547   1.404       .  A
C1546      C1549   1.496       .  S
C1547      C1548   1.398       .  A
C1547      H1555   1.083       .  S
C1548      H1556   1.082       .  S
C1549      H1557   1.085       .  S
C1549      C1550   1.351       .  D
C1550      H1558   1.084       .  S
C1551      H1559   1.087       .  S
C1551      C1552   1.349       .  D
C1552      H1560   1.086       .  S
C1561      C1562   1.400       .  A
C1561      C1566   1.408       .  A
C1561      C1569   1.483       .  S
C1562      C1563   1.393       .  A
C1562      H1571   1.084       .  S
C1563      C1564   1.409       .  A
C1563      H1572   1.081       .  S
C1564      C1565   1.405       .  A
C1564      C1567   1.491       .  S
C1565      C1566   1.403       .  A
C1565      H1573   1.083       .  S
C1566      H1574   1.082       .  S
C1567      H1575   1.087       .  S
C1567      C1568   1.346       .  D
C1568      H1576   1.085       .  S
C1569      H1577   1.087       .  S
C1569      C1570   1.346       .  D
C1570      H1578   1.086       .  S
C1579      C1580   1.403       .  A
C1579      C1584   1.408       .  A
C1579      C1587   1.492       .  S
C1580      C1581   1.400       .  A
C1580      H1589   1.084       .  S
C1581      C1582   1.410       .  A
C1581      H1590   1.081       .  S
C1582      C1583   1.404       .  A
C1582      C1585   1.495       .  S
C1583      C1584   1.401       .  A
C1583      H1591   1.083       .  S
C1584      H1592   1.081       .  S
C1585      H1593   1.085       .  S
C1585      C1586   1.347       .  D
C1586      H1594   1.085       .  S
C1587      H1595   1.087       .  S
C1587      C1588   1.348       .  D
C1588      H1596   1.085       .  S
C1597      C1598   1.406       .  A
C1597      C1602   1.406       .  A
C1597      C1605   1.488       .  S
C1598      C1599   1.403       .  A
C1598      H1607   1.083       .  S
C1599      C1600   1.407       .  A
C1599      H1608   1.082       .  S
C1600      C1601   1.402       .  A
C1600      C1603   1.483       .  S
C1601      C1602   1.396       .  A
C1601      H1609   1.084       .  S
C1602      H1610   1.082       .  S
C1603      H1611   1.087       .  S
C1603      C1604   1.347       .  D
C1604      H1612   1.086       .  S
C1605      H1613   1.087       .  S
C1605      C1606   1.347       .  D
C1606      H1614   1.086       .  S
C1615      C1616   1.403       .  A
C1615      C1620   1.408       .  A
C1615      C1623   1.485       .  S
C1616      C1617   1.394       .  A
C1616      H1625   1.084       .  S
C1617      C1618   1.407       .  A
C1617      H1626   1.082       .  S
C1618      C1619   1.405       .  A
C1618      C1621   1.489       .  S
C1619      C1620   1.403       .  A
C1619      H1627   1.083       .  S
C1620      H1628   1.081       .  S
C1621      H1629   1.087       .  S
C1621      C1622   1.346       .  D
C1622      H1630   1.085       .  S
C1623      H1631   1.086       .  S
C1623      C1624   1.349       .  D
C1624      H1632   1.085       .  S
C1633      C1634   1.405       .  A
C1633      C1638   1.407       .  A
C1633      C1641   1.489       .  S
C1634      C1635   1.403       .  A
C1634      H1643   1.083       .  S
C1635      C1636   1.409       .  A
C1635      H1644   1.082       .  S
C1636      C1637   1.401       .  A
C1636      C1639   1.485       .  S
C1637      C1638   1.394       .  A
C1637      H1645   1.084       .  S
C1638      H1646   1.081       .  S
C1639      H1647   1.086       .  S
C1639      C1640   1.346       .  D
C1640      H1648   1.085       .  S
C1641      H1649   1.087       .  S
C1641      C1642   1.346       .  D
C1642      H1650   1.085       .  S
C1651      C1652   1.405       .  A
C1651      C1656   1.406       .  A
C1651      C1659   1.487       .  S
C1652      C1653   1.406       .  A
C1652      H1661   1.083       .  S
C1653      C1654   1.409       .  A
C1653      H1662   1.082       .  S
C1654      C1655   1.401       .  A
C1654      C1657   1.484       .  S
C1655      C1656   1.393       .  A
C1655      H1663   1.084       .  S
C1656      H1664   1.083       .  S
C1657      H1665   1.086       .  S
C1657      C1658   1.347       .  D
C1658      H1666   1.086       .  S
C1659      H1667   1.086       .  S
C1659      C1660   1.344       .  D
C1660      H1668   1.088       .  S
