geometry optimzed in LAMMPS
_audit_creation_date              2020-12-01 
_audit_creation_method            'lammps2cif' 
_symmetry_space_group_name_H-M    'P1' 
_symmetry_Int_Tables_number       1 
_symmetry_cell_setting            triclinic 
loop_ 
_symmetry_equiv_pos_as_xyz 
  x,y,z 
_cell_length_a                    43.57591517 
_cell_length_b                    38.44473986763891 
_cell_length_c                    51.98291236789175 
_cell_angle_alpha                 90.06720592367485 
_cell_angle_beta                  89.89960470656533 
_cell_angle_gamma                 90.32051172144179 
loop_ 
_atom_site_label 
_atom_site_type_symbol 
_atom_site_fract_x 
_atom_site_fract_y 
_atom_site_fract_z 
_atom_site_charge 
C1          C  0.02422624  0.16208700  0.89594064     0.80700
N2          N  0.05172106  0.17903175  0.89541195    -0.77600
C3          C  0.05561352  0.20747293  0.88021049     0.83200
N4          N  0.03192581  0.21893570  0.86564867    -0.77500
C5          C  0.00444931  0.20218324  0.86591629     0.83300
N6          N  0.00084553  0.17377174  0.88111543    -0.79200
C7          C  0.19973620  0.33248812  0.89100389     0.80700
N8          N  0.17306303  0.31414061  0.89202001    -0.77600
C9          C  0.16803925  0.28701930  0.87583602     0.83200
N10         N  0.18988466  0.27818693  0.85838566    -0.77500
C11         C  0.21641723  0.29677361  0.85671537     0.83300
N12         N  0.22122135  0.32370386  0.87322677    -0.79200
O13         O  0.41269168  0.25704882  0.77397780    -0.57300
C14         C  0.35574983  0.29697913  0.71675627     0.75300
O15         O  0.35065921  0.18538174  0.73087947    -0.58500
C16         C  0.41078877  0.23339353  0.79090518     0.75300
C17         C  0.31373900  0.25565864  0.78688449     0.77700
Cd18       Cd  0.36404519  0.24109051  0.75277045     1.37500
O19         O  0.38064085  0.29388616  0.72910810    -0.57300
O20         O  0.33601577  0.27635683  0.78329755    -0.56100
C21         C  0.37695806  0.18160077  0.72075439     0.77700
O22         O  0.31459932  0.22713209  0.77455293    -0.58500
O23         O  0.33554823  0.27380763  0.72063640    -0.56900
O24         O  0.38708707  0.21425409  0.79021512    -0.56900
O25         O  0.39631323  0.20540282  0.72523977    -0.56100
C26         C  0.27385386  0.17350841  0.39620019     0.80700
N27         N  0.30102504  0.19095851  0.39651587    -0.77600
C28         C  0.30685143  0.21729016  0.37981805     0.83200
N29         N  0.28479080  0.22656034  0.36276401    -0.77500
C30         C  0.25743498  0.20952287  0.36206823     0.83300
N31         N  0.25220800  0.18303785  0.37887414    -0.79200
C32         C  0.45580632  0.33296059  0.39809567     0.80700
N33         N  0.42788774  0.31710971  0.39722414    -0.77600
C34         C  0.42244723  0.29121981  0.38009176     0.83200
N35         N  0.44496797  0.28081223  0.36392315    -0.77500
C36         C  0.47304460  0.29613540  0.36457514     0.83300
N37         N  0.47824154  0.32221676  0.38176383    -0.79200
O38         O  0.16307947  0.26652332  0.27276633    -0.57300
C39         C  0.09943216  0.30476103  0.21671671     0.75300
O40         O  0.10081319  0.19504441  0.23033213    -0.58500
C41         C  0.16123130  0.24260120  0.28957000     0.75300
C42         C  0.06739348  0.26263169  0.28985232     0.77700
Cd43       Cd  0.11380115  0.25022243  0.25224129     1.37500
O44         O  0.12494065  0.30428403  0.22848644    -0.57300
O45         O  0.08911540  0.28370214  0.28533988    -0.56100
C46         C  0.12682851  0.19200455  0.21955150     0.77700
O47         O  0.06658346  0.23515903  0.27622167    -0.58500
O48         O  0.08136351  0.27960366  0.22107728    -0.56900
O49         O  0.13805104  0.22272308  0.28833917    -0.56900
O50         O  0.14615914  0.21593528  0.22386581    -0.56100
C51         C  0.32982260  0.41240081  0.64850888     0.80700
N52         N  0.30305631  0.43013684  0.65004241    -0.77600
C53         C  0.29797531  0.45814640  0.63482908     0.83200
N54         N  0.31984839  0.46842941  0.61774692    -0.77500
C55         C  0.34664524  0.45071923  0.61566647     0.83300
N56         N  0.35140434  0.42290098  0.63127321    -0.79200
C57         C  0.14946655  0.57133223  0.65527656     0.80700
N58         N  0.17611915  0.55320252  0.65548806    -0.77600
C59         C  0.18118394  0.52756006  0.63803230     0.83200
N60         N  0.15972955  0.52048463  0.61985125    -0.77500
C61         C  0.13322029  0.53884131  0.61910772     0.83300
N62         N  0.12815096  0.56386709  0.63705769    -0.79200
O63         O  0.03931837  0.48345727  0.52822628    -0.57300
C64         C  0.48206870  0.44330418  0.47123898     0.75300
O65         O  0.44123830  0.51240497  0.52735026    -0.58500
C66         C  0.04079268  0.51087822  0.54176231     0.75300
C67         C  0.00126906  0.55800281  0.47144534     0.77700
Cd68       Cd  0.49143390  0.50041172  0.50622010     1.37500
O69         O  0.00755151  0.44752613  0.48256682    -0.57300
O70         O  0.01925839  0.53241922  0.47320880    -0.56100
C71         C  0.44354210  0.48761265  0.54334511     0.77700
O72         O  0.47782656  0.55712608  0.48597823    -0.58500
O73         O  0.46150580  0.46542028  0.47624812    -0.56900
O74         O  0.01985692  0.53302748  0.53819306    -0.56900
O75         O  0.46761335  0.46955287  0.54174011    -0.56100
C76         C  0.27434696  0.67263983  0.90274289     0.80700
N77         N  0.25305981  0.68388135  0.88578885    -0.77600
C78         C  0.25900695  0.71057460  0.86952141     0.83200
N79         N  0.28710790  0.72603056  0.87006726    -0.77500
C80         C  0.30885032  0.71501155  0.88690171     0.83300
N81         N  0.30241066  0.68822615  0.90316134    -0.79200
C82         C  0.46266505  0.82098391  0.90456905     0.80700
N83         N  0.43521586  0.80410942  0.90486392    -0.77600
C84         C  0.42890740  0.77895169  0.88728393     0.83200
N85         N  0.45007435  0.77083428  0.86901507    -0.77500
C86         C  0.47735118  0.78816287  0.86802167     0.83300
N87         N  0.48321607  0.81315077  0.88587162    -0.79200
O88         O  0.13740371  0.80423067  0.73369298    -0.57300
C89         C  0.16904737  0.73865948  0.79070697     0.75300
O90         O  0.07085430  0.73580523  0.77623576    -0.58500
C91         C  0.11304254  0.80802020  0.72075809     0.75300
C92         C  0.12709662  0.68937599  0.72210760     0.77700
Cd93       Cd  0.12032983  0.74946475  0.75473505     1.37500
O94         O  0.17191819  0.76111871  0.77300780    -0.57300
O95         O  0.14850312  0.71111276  0.72584114    -0.56100
C96         C  0.07231801  0.76119866  0.79179350     0.77700
O97         O  0.10190746  0.69559010  0.73335109    -0.58500
O98         O  0.14414032  0.72161465  0.79115555    -0.56900
O99         O  0.09294531  0.78444385  0.72328212    -0.56900
O100        O  0.09546244  0.78097150  0.78954164    -0.56100
C101        C  0.34276443  0.93101861  0.15643571     0.80700
N102        N  0.31509706  0.94708015  0.15624247    -0.77600
C103        C  0.30999483  0.97430891  0.14018353     0.83200
N104        N  0.33255170  0.98478447  0.12381184    -0.77500
C105        C  0.36011469  0.96851522  0.12345959     0.83300
N106        N  0.36490628  0.94169393  0.13988893    -0.79200
C107        C  0.15484811  0.07729260  0.15110811     0.80700
N108        N  0.13523538  0.06829133  0.13204444    -0.77600
C109        C  0.14208307  0.04286358  0.11485501     0.83200
N110        N  0.16939645  0.02619944  0.11691208    -0.77500
C111        C  0.18958638  0.03538021  0.13567218     0.83300
N112        N  0.18236742  0.06105353  0.15254978    -0.79200
O113        O  0.47947729  0.04711042  0.98221046    -0.57300
C114        C  0.45394873  0.99197368  0.04649638     0.75300
O115        O  0.01273899  0.94183228  0.98348145    -0.58500
C116        C  0.00340954  0.05028973  0.96853784     0.75300
C117        C  0.04871859  0.01085740  0.03877851     0.77700
Cd118      Cd  0.49793740  0.99577541  0.00581002     1.37500
O119        O  0.45137583  0.01434247  0.02872838    -0.57300
O120        O  0.02759706  0.03221831  0.03390914    -0.56100
C121        C  0.48606207  0.93486557  0.97522484     0.77700
O122        O  0.04732815  0.98182217  0.02717717    -0.58500
O123        O  0.47635086  0.97132414  0.04473241    -0.56900
O124        O  0.02395006  0.02761812  0.97184453    -0.56900
O125        O  0.46511320  0.95585766  0.98148906    -0.56100
C126        C  0.06924499  0.41691980  0.14705050     0.80700
N127        N  0.08944740  0.42587823  0.12830728    -0.77600
C128        C  0.08255033  0.45082822  0.11086998     0.83200
N129        N  0.05530669  0.46753830  0.11259361    -0.77500
C130        C  0.03474770  0.45871988  0.13117281     0.83300
N131        N  0.04157776  0.43304550  0.14817128    -0.79200
C132        C  0.38763227  0.57496175  0.14523079     0.80700
N133        N  0.41409166  0.55661660  0.14605784    -0.77600
C134        C  0.41764375  0.52764764  0.13145593     0.83200
N135        N  0.39468667  0.51726742  0.11546141    -0.77500
C136        C  0.36821798  0.53575222  0.11404169     0.83300
N137        N  0.36503077  0.56449863  0.12906236    -0.79200
O138        O  0.17639726  0.51506409  0.02288724    -0.57300
C139        C  0.23921303  0.55861891  0.96952103     0.75300
O140        O  0.27271894  0.48254187  0.02399284    -0.58500
C141        C  0.17465263  0.48654937  0.03509970     0.75300
C142        C  0.21675516  0.44531624  0.96376584     0.77700
Cd143      Cd  0.22517337  0.49957450  0.00113699     1.37500
O144        O  0.21294888  0.55518492  0.97980493    -0.57300
O145        O  0.19674928  0.46845833  0.96765323    -0.56100
C146        C  0.27152865  0.50769850  0.03980090     0.77700
O147        O  0.24104376  0.44747404  0.97709806    -0.58500
O148        O  0.25820165  0.53457809  0.97376471    -0.56900
O149        O  0.19588974  0.46489440  0.03103898    -0.56900
O150        O  0.24891035  0.52787432  0.03751136    -0.56100
C151        C  0.02877519  0.66670223  0.39755527     0.80700
N152        N  0.00722241  0.67580367  0.38002408    -0.77600
C153        C  0.01290607  0.70123845  0.36246101     0.83200
N154        N  0.04036313  0.71810289  0.36316463    -0.77500
C155        C  0.06224795  0.70926060  0.38052314     0.83300
N156        N  0.05642349  0.68332533  0.39765687    -0.79200
C157        C  0.20982979  0.82910143  0.39581325     0.80700
N158        N  0.18227562  0.81234999  0.39601739    -0.77600
C159        C  0.17640929  0.78651374  0.37882575     0.83200
N160        N  0.19813619  0.77753500  0.36129057    -0.77500
C161        C  0.22560857  0.79439361  0.36059747     0.83300
N162        N  0.23119203  0.81993344  0.37807946    -0.79200
O163        O  0.38731223  0.80347244  0.23035763    -0.57300
C164        C  0.41819041  0.73342731  0.28729201     0.75300
O165        O  0.32079933  0.73584367  0.27227820    -0.58500
C166        C  0.36263067  0.80773253  0.21784848     0.75300
C167        C  0.37613272  0.69314584  0.21373425     0.77700
Cd168      Cd  0.37045420  0.74850187  0.25067767     1.37500
O169        O  0.42047380  0.75919499  0.27215003    -0.57300
O170        O  0.39738657  0.71504003  0.21763451    -0.56100
C171        C  0.32181937  0.76265345  0.28654237     0.77700
O172        O  0.35199063  0.69684399  0.22709721    -0.58500
O173        O  0.39436178  0.71479395  0.28481860    -0.56900
O174        O  0.34252042  0.78416412  0.22025163    -0.56900
O175        O  0.34509655  0.78209262  0.28387239    -0.56100
C176        C  0.09447862  0.92430773  0.65172475     0.80700
N177        N  0.11627624  0.93349011  0.63430718    -0.77600
C178        C  0.11054706  0.95795450  0.61607365     0.83200
N179        N  0.08231720  0.97285891  0.61528422    -0.77500
C180        C  0.06012370  0.96386689  0.63252609     0.83300
N181        N  0.06654916  0.93962058  0.65063843    -0.79200
C182        C  0.40657375  0.07053716  0.64975434     0.80700
N183        N  0.38736193  0.06469498  0.62967827    -0.77600
C184        C  0.39544954  0.04324187  0.61006078     0.83200
N185        N  0.42318216  0.02730986  0.61066383    -0.77500
C186        C  0.44264340  0.03307533  0.63061281     0.83300
N187        N  0.43435400  0.05465736  0.65007186    -0.79200
O188        O  0.20301949  0.01250682  0.52420135    -0.57300
C189        C  0.25716908  0.05793873  0.46684751     0.75300
O190        O  0.30120421  0.98455792  0.52042391    -0.58500
C191        C  0.20448854  0.98635092  0.53900351     0.75300
C192        C  0.24074423  0.94131883  0.46604209     0.77700
Cd193      Cd  0.25105684  0.99889626  0.50065944     1.37500
O194        O  0.23173427  0.05078570  0.47750860    -0.57300
O195        O  0.22082062  0.96419926  0.47081003    -0.56100
C196        C  0.30166648  0.01118871  0.53488076     0.77700
O197        O  0.26647186  0.94524942  0.47705891    -0.58500
O198        O  0.27914043  0.03758971  0.47156057    -0.56900
O199        O  0.22746903  0.96686371  0.53593457    -0.56900
O200        O  0.27890951  0.03137523  0.53317830    -0.56100
C201        C  0.32892814  0.05259582  0.56362134    -0.11800
C202        C  0.32717802  0.01908540  0.55289202     0.05300
C203        C  0.34974857  0.99447123  0.55955084    -0.07000
C204        C  0.37269846  0.00337402  0.57730912    -0.07800
C205        C  0.37365295  0.03650598  0.58875036    -0.02300
C206        C  0.35208696  0.06178211  0.58103792     0.04500
N207        N  0.35398468  0.09714388  0.58991686     0.67000
H208        H  0.31248284  0.07220248  0.55801307     0.15900
H209        H  0.38905842  0.98371109  0.58300055     0.15600
N210        N  0.34897573  0.95990271  0.54940625     0.74700
O211        O  0.37936457  0.11314679  0.58944461    -0.38800
O212        O  0.32982457  0.11384378  0.59490080    -0.38700
O213        O  0.36951137  0.95014875  0.53389319    -0.39400
O214        O  0.33037396  0.93786895  0.55855522    -0.39500
C215        C  0.15458838  0.00015203  0.56027503    -0.11800
C216        C  0.18066921  0.97894028  0.55880272     0.05300
C217        C  0.18360192  0.95130789  0.57654838    -0.07000
C218        C  0.16093888  0.94572334  0.59519832    -0.07800
C219        C  0.13463634  0.96669116  0.59662421    -0.02300
C220        C  0.13174587  0.99441958  0.57886967     0.04500
N221        N  0.10614739  0.01748890  0.57958840     0.67000
H222        H  0.15189595  0.02160786  0.54698426     0.15900
H223        H  0.16383720  0.92411557  0.60831264     0.15600
N224        N  0.20922429  0.92823648  0.57582547     0.74700
O225        O  0.10510640  0.04116337  0.59640056    -0.38800
O226        O  0.08726009  0.01769695  0.56121334    -0.38700
O227        O  0.22879280  0.92906965  0.59368373    -0.39400
O228        O  0.20943637  0.90337328  0.55994935    -0.39500
C229        C  0.02491657  0.00980034  0.61578430    -0.11800
C230        C  0.02934426  0.98064451  0.63172265     0.05300
C231        C  0.50435263  0.96880542  0.64700150    -0.07000
C232        C  0.47651116  0.98677982  0.64677598    -0.07800
C233        C  0.47261141  0.01593938  0.63115808    -0.02300
C234        C  0.49689198  0.02746241  0.61547710     0.04500
N235        N  0.49358171  0.05758828  0.59962883     0.67000
H236        H  0.04343125  0.01954350  0.60387425     0.15900
H237        H  0.45755652  0.97740735  0.65843492     0.15600
N238        N  0.50620423  0.93780806  0.66204533     0.74700
O239        O  0.99104319  0.08720970  0.60971009    -0.38800
O240        O  0.49539890  0.05490222  0.57548199    -0.38700
O241        O  0.00747605  0.94001280  0.68632536    -0.39400
O242        O  0.50120343  0.90871701  0.65154348    -0.39500
C243        C  0.20268506  0.90528516  0.44227709    -0.11800
C244        C  0.23354111  0.91168841  0.44869682     0.05300
C245        C  0.25633822  0.88971930  0.43842799    -0.07000
C246        C  0.24803616  0.86279427  0.42156448    -0.07800
C247        C  0.21718370  0.85681025  0.41479863    -0.02300
C248        C  0.19435009  0.87811888  0.42573084     0.04500
N249        N  0.16266398  0.87350360  0.41952561     0.67000
H250        H  0.18471032  0.92152849  0.45012534     0.15900
H251        H  0.26596097  0.84655358  0.41362979     0.15600
N252        N  0.28805482  0.89479137  0.44438578     0.74700
O253        O  0.14574092  0.85542799  0.43407723    -0.38800
O254        O  0.15059751  0.89239458  0.40253137    -0.38700
O255        O  0.30127360  0.87427162  0.45965509    -0.39400
O256        O  0.30377422  0.91645148  0.43167966    -0.39500
C257        C  0.27703302  0.80506613  0.34098318    -0.11800
C258        C  0.24961130  0.78557096  0.34115662     0.05300
C259        C  0.24605515  0.75868577  0.32271031    -0.07000
C260        C  0.26976785  0.75162437  0.30519213    -0.07800
C261        C  0.29720844  0.77096575  0.30534031    -0.02300
C262        C  0.30053399  0.79818002  0.32343390     0.04500
N263        N  0.32775888  0.81904731  0.32453506     0.67000
H264        H  0.28055424  0.82601921  0.35462483     0.15900
H265        H  0.26656047  0.73087289  0.29132133     0.15600
N266        N  0.21858840  0.73831452  0.32127711     0.74700
O267        O  0.32817505  0.84867561  0.31411198    -0.38800
O268        O  0.34962106  0.81010408  0.33892651    -0.38700
O269        O  0.19889393  0.74487965  0.30421603    -0.39400
O270        O  0.21608379  0.71091835  0.33447683    -0.39500
C271        C  0.47034003  0.74312440  0.30597627    -0.11800
C272        C  0.44208495  0.72541551  0.30678170     0.05300
C273        C  0.43746758  0.69983540  0.32593755    -0.07000
C274        C  0.46081252  0.69246299  0.34351977    -0.09400
C275        C  0.48921391  0.71002865  0.34279167    -0.02300
C276        C  0.49389822  0.73552739  0.32344319     0.04500
N277        N  0.02253143  0.75350858  0.32068480     0.67000
H278        H  0.47453075  0.76256074  0.29129432     0.15900
H279        H  0.45632687  0.67289932  0.35803803     0.15600
N280        N  0.40900185  0.68139481  0.32822716     0.74700
O281        O  0.04487517  0.73840429  0.31007095    -0.38800
O282        O  0.02392830  0.78585206  0.32471624    -0.38700
O283        O  0.40783149  0.64931381  0.32313127    -0.39400
O284        O  0.38630144  0.69587857  0.33877627    -0.39500
C285        C  0.14749022  0.73138746  0.38377245    -0.11800
C286        C  0.14703738  0.76738324  0.37966838     0.05300
C287        C  0.11866378  0.78437907  0.37679042    -0.07000
C288        C  0.09137466  0.76484571  0.37731517    -0.07800
C289        C  0.09175544  0.72862918  0.38092304    -0.02300
C290        C  0.12020700  0.71191166  0.38461764     0.04500
N291        N  0.12200324  0.67505475  0.38792207     0.67000
H292        H  0.16925702  0.71826164  0.38612126     0.15900
H293        H  0.06970210  0.77804371  0.37464563     0.15600
N294        N  0.11720520  0.82114988  0.37248578     0.74700
O295        O  0.11359595  0.65519439  0.36990336    -0.38800
O296        O  0.13701751  0.66269973  0.40650383    -0.38700
O297        O  0.13203545  0.83474626  0.35416204    -0.39400
O298        O  0.09842620  0.83940960  0.38506194    -0.39500
C299        C  0.41027120  0.62477332  0.16930165    -0.11800
C300        C  0.38392986  0.60633889  0.16157070     0.05300
C301        C  0.35484156  0.61835804  0.16967784    -0.07000
C302        C  0.35286791  0.64695589  0.18630813    -0.07800
C303        C  0.37929915  0.66453010  0.19479129    -0.02300
C304        C  0.40819965  0.65385409  0.18539712     0.04500
N305        N  0.43577310  0.67188769  0.19222909     0.67000
H306        H  0.43274822  0.61669542  0.16272882     0.15900
H307        H  0.33042888  0.65517975  0.19286531     0.15600
N308        N  0.32707921  0.60136142  0.16191538     0.74700
O309        O  0.45147386  0.66157277  0.21107845    -0.38800
O310        O  0.44672871  0.69457120  0.17722156    -0.38700
O311        O  0.31995950  0.57219640  0.17138172    -0.39400
O312        O  0.30773097  0.61758893  0.14853229    -0.39500
C313        C  0.32124316  0.49199302  0.06056631    -0.11800
C314        C  0.29543450  0.51368833  0.05966142     0.05300
C315        C  0.29325554  0.54127685  0.07754691    -0.07000
C316        C  0.31677835  0.54702459  0.09523576    -0.07800
C317        C  0.34325882  0.52628178  0.09564260    -0.02300
C318        C  0.34511552  0.49805394  0.07814688     0.04500
N319        N  0.37109987  0.47553983  0.07751826     0.67000
H320        H  0.32332901  0.47054642  0.04713598     0.15900
H321        H  0.31430524  0.56864403  0.10843315     0.15600
N322        N  0.26756381  0.56426285  0.07789202     0.74700
O323        O  0.36811051  0.44429037  0.08453088    -0.38800
O324        O  0.39484002  0.48466833  0.06527097    -0.38700
O325        O  0.24800273  0.56194693  0.09574468    -0.39400
O326        O  0.26742534  0.59047016  0.06329291    -0.39500
C327        C  0.10707526  0.49394466  0.08147587    -0.11800
C328        C  0.10452701  0.45943642  0.09012140     0.05300
C329        C  0.12401750  0.43386677  0.07955327    -0.07000
C330        C  0.14646803  0.44359214  0.06169900    -0.07800
C331        C  0.14952976  0.47816687  0.05334806    -0.02300
C332        C  0.12924823  0.50346588  0.06317185     0.04500
N333        N  0.13152002  0.53907800  0.05553829     0.67000
H334        H  0.09227919  0.51383124  0.08941690     0.15900
H335        H  0.16128921  0.42362654  0.05391562     0.15600
N336        N  0.12060570  0.39773903  0.08593204     0.74700
O337        O  0.11632743  0.54970263  0.03648743    -0.38800
O338        O  0.14474582  0.56079090  0.07004417    -0.38700
O339        O  0.09485632  0.38291625  0.08340559    -0.39400
O340        O  0.14396088  0.37961410  0.09076038    -0.39500
C341        C  0.47788804  0.45667312  0.13441752    -0.11800
C342        C  0.00492413  0.47650554  0.13236911     0.05300
C343        C  0.00300583  0.51296847  0.13009344    -0.07000
C344        C  0.47423139  0.52889830  0.12994820    -0.07800
C345        C  0.44716601  0.50916709  0.13195563    -0.02300
C346        C  0.44897906  0.47262177  0.13419650     0.04500
N347        N  0.42192454  0.45153802  0.13704883     0.67000
H348        H  0.47928526  0.42863167  0.13608882     0.15900
H349        H  0.47302233  0.55695821  0.12825215     0.15600
N350        N  0.03005947  0.53421936  0.12866402     0.74700
O351        O  0.41949538  0.42322764  0.12487660    -0.38800
O352        O  0.40219726  0.45897625  0.15396651    -0.38700
O353        O  0.03349698  0.55541272  0.11034686    -0.39400
O354        O  0.04911907  0.53419101  0.14692098    -0.39500
C355        C  0.09990025  0.99922627  0.05860679    -0.11800
C356        C  0.07320109  0.01947757  0.05748538     0.05300
C357        C  0.06998805  0.04762245  0.07471288    -0.07000
C358        C  0.09287954  0.05471537  0.09264549    -0.07800
C359        C  0.11957228  0.03441505  0.09417208    -0.02300
C360        C  0.12319414  0.00664423  0.07649490     0.04500
N361        N  0.15024717  0.98578501  0.07618996     0.67000
H362        H  0.10290584  0.97779301  0.04538315     0.15900
H363        H  0.08929087  0.07625062  0.10560752     0.15600
N364        N  0.04306327  0.06871871  0.07502483     0.74700
O365        O  0.14848985  0.95401416  0.08210072    -0.38800
O366        O  0.17426403  0.99725001  0.06547565    -0.38700
O367        O  0.02088041  0.06068141  0.08952179    -0.39400
O368        O  0.04322438  0.09776195  0.06374007    -0.39500
C369        C  0.32372393  0.87723792  0.17748398    -0.11800
C370        C  0.34806577  0.90045276  0.17303913     0.05300
C371        C  0.37743333  0.89263732  0.18294738    -0.07000
C372        C  0.38173249  0.86205930  0.19709704    -0.07800
C373        C  0.35733716  0.83886990  0.20167267    -0.02300
C374        C  0.32811636  0.84653696  0.19135112     0.04500
N375        N  0.30263800  0.82335096  0.19448595     0.67000
H376        H  0.30123567  0.88244010  0.16953337     0.15900
H377        H  0.40427308  0.85673068  0.20487149     0.15600
N378        N  0.40290847  0.91590689  0.17953261     0.74700
O379        O  0.28353052  0.82845449  0.21234044    -0.38800
O380        O  0.29676138  0.80116333  0.17724850    -0.38700
O381        O  0.40147043  0.94666821  0.18794588    -0.39400
O382        O  0.42800254  0.90467356  0.17075878    -0.39500
C383        C  0.41348610  0.96252403  0.10734388    -0.11800
C384        C  0.38448801  0.97803168  0.10460022     0.05300
C385        C  0.37975764  0.00106811  0.08370049    -0.07000
C386        C  0.40331237  0.00657527  0.06572028    -0.07800
C387        C  0.43150429  0.98935268  0.06780384    -0.02300
C388        C  0.43686681  0.96807679  0.08940965     0.04500
N389        N  0.46595671  0.95194033  0.09361543     0.67000
H390        H  0.41825238  0.94576213  0.12347277     0.15900
H391        H  0.39891964  0.02317195  0.04939276     0.15600
N392        N  0.35101725  0.01801680  0.07955114     0.74700
O393        O  0.48892817  0.97033704  0.09965386    -0.38800
O394        O  0.46778254  0.91922123  0.09462887    -0.38700
O395        O  0.35039487  0.05070242  0.07740391    -0.39400
O396        O  0.32814841  0.00037779  0.07216759    -0.39500
C397        C  0.25327312  0.96963326  0.14252373    -0.11800
C398        C  0.27943278  0.99081244  0.13940394     0.05300
C399        C  0.27566793  0.02683294  0.13468737    -0.07000
C400        C  0.24598254  0.04062591  0.13345723    -0.07800
C401        C  0.22007608  0.01940143  0.13676244    -0.02300
C402        C  0.22373834  0.98361446  0.14115758     0.04500
N403        N  0.19772851  0.96143862  0.14517721     0.67000
H404        H  0.25574282  0.94199107  0.14594567     0.15900
H405        H  0.24305822  0.06824123  0.13015970     0.15600
N406        N  0.30145928  0.04997035  0.13195753     0.74700
O407        O  0.19179464  0.93750556  0.12928860    -0.38800
O408        O  0.18340829  0.96257776  0.16627972    -0.38700
O409        O  0.30063067  0.07428318  0.11566872    -0.39400
O410        O  0.32295203  0.04944664  0.14820112    -0.39500
C411        C  0.13343965  0.85858912  0.69572428    -0.11800
C412        C  0.10820178  0.83830896  0.70363057     0.05300
C413        C  0.07860336  0.84739495  0.69501098    -0.07000
C414        C  0.07481466  0.87580871  0.67865013    -0.07800
C415        C  0.09996596  0.89592564  0.67046250    -0.02300
C416        C  0.12960844  0.88732596  0.67939582     0.04500
N417        N  0.15586996  0.90804188  0.67279811     0.67000
H418        H  0.15626932  0.85227286  0.70237455     0.15900
H419        H  0.05195311  0.88170876  0.67200672     0.15600
N420        N  0.05194705  0.82837703  0.70293854     0.74700
O421        O  0.15714596  0.93957782  0.67952289    -0.38800
O422        O  0.17914431  0.89398079  0.66283351    -0.38700
O423        O  0.03787514  0.83718066  0.72313678    -0.39400
O424        O  0.04008379  0.80621155  0.68798902    -0.39500
C425        C  0.44512751  0.86349527  0.93765384    -0.11800
C426        C  0.46954455  0.84858422  0.92385880     0.05300
C427        C  0.49970203  0.86140593  0.92818013    -0.07000
C428        C  0.50442010  0.88916779  0.94522149    -0.07800
C429        C  0.47991852  0.90441470  0.95850695    -0.02300
C430        C  0.45002111  0.89102036  0.95482258     0.04500
N431        N  0.42435728  0.90476257  0.96856207     0.67000
H432        H  0.42186032  0.85415104  0.93488897     0.15900
H433        H  0.02754213  0.89893780  0.94800877     0.15600
N434        N  0.02593817  0.84633865  0.91594134     0.74700
O435        O  0.40643827  0.92567293  0.95756845    -0.38800
O436        O  0.41715037  0.89223374  0.99018345    -0.38700
O437        O  0.04500929  0.86560595  0.90436421    -0.39400
O438        O  0.03275586  0.81505246  0.92039793    -0.39500
C439        C  0.02002494  0.74993697  0.80993273    -0.11800
C440        C  0.04828747  0.76759874  0.81150693     0.05300
C441        C  0.05282479  0.79173423  0.83164301    -0.07000
C442        C  0.02938413  0.79795849  0.84938219    -0.07800
C443        C  0.00091534  0.78056462  0.84789680    -0.02300
C444        C  0.99630671  0.75640982  0.82763202     0.04500
N445        N  0.46760722  0.73882850  0.82416486     0.67000
H446        H  0.01595747  0.73163948  0.79449390     0.15900
H447        H  0.03389102  0.81641243  0.86454778     0.15600
N448        N  0.08137483  0.80974452  0.83485659     0.74700
O449        O  0.44500590  0.75529540  0.81527933    -0.38800
O450        O  0.46638458  0.70607384  0.82541631    -0.38700
O451        O  0.08304354  0.84191922  0.83025031    -0.39400
O452        O  0.10346516  0.79476291  0.84583252    -0.39500
C453        C  0.23509656  0.63886130  0.92704226    -0.11800
C454        C  0.26618331  0.64404603  0.92066179     0.05300
C455        C  0.28831806  0.62161118  0.93126286    -0.07000
C456        C  0.27900525  0.59445658  0.94748302    -0.07800
C457        C  0.24783447  0.58886306  0.95337536    -0.02300
C458        C  0.22580590  0.61172265  0.94319612     0.04500
N459        N  0.19381581  0.60726228  0.94841490     0.67000
H460        H  0.21771737  0.65594769  0.91944896     0.15900
H461        H  0.29632947  0.57723781  0.95510850     0.15600
N462        N  0.32012439  0.62487783  0.92483346     0.74700
O463        O  0.18161874  0.62356206  0.96683104    -0.38800
O464        O  0.17704683  0.59133211  0.93246784    -0.38700
O465        O  0.33937519  0.63262959  0.94204552    -0.39400
O466        O  0.32941335  0.61566457  0.90286218    -0.39500
C467        C  0.18339915  0.71793635  0.83391145    -0.11800
C468        C  0.19272540  0.73281938  0.81055501     0.05300
C469        C  0.22379765  0.74245435  0.80725710    -0.07000
C470        C  0.24479976  0.73675064  0.82724360    -0.07800
C471        C  0.23552864  0.72098311  0.85041597    -0.02300
C472        C  0.20416514  0.71236241  0.85386176     0.04500
N473        N  0.19270310  0.69882342  0.87770687     0.67000
H474        H  0.15947582  0.71128127  0.83704029     0.15900
H475        H  0.26876439  0.74310430  0.82406163     0.15600
N476        N  0.23478350  0.75596374  0.78329095     0.74700
O477        O  0.19530329  0.71655672  0.89804745    -0.38800
O478        O  0.17650750  0.67149289  0.87787248    -0.38700
O479        O  0.24873410  0.78480546  0.78269286    -0.39400
O480        O  0.23456111  0.73689004  0.76350863    -0.39500
C481        C  0.37232640  0.78292522  0.88574834    -0.11800
C482        C  0.39851985  0.76204488  0.88732021     0.05300
C483        C  0.39520406  0.72561974  0.88869358    -0.07000
C484        C  0.36574762  0.71071770  0.88872515    -0.07800
C485        C  0.33948359  0.73162288  0.88721400    -0.02300
C486        C  0.34293891  0.76805895  0.88555558     0.04500
N487        N  0.31680885  0.79035305  0.88460317     0.67000
H488        H  0.37472098  0.81096628  0.88467527     0.15900
H489        H  0.36337365  0.68269586  0.88996284     0.15600
N490        N  0.42143481  0.70362385  0.89104391     0.74700
O491        O  0.30083012  0.79513787  0.90455201    -0.38800
O492        O  0.31141067  0.80778153  0.86457659    -0.38700
O493        O  0.43853315  0.70607934  0.91054282    -0.39400
O494        O  0.42568245  0.67934637  0.87509447    -0.39500
C495        C  0.03518548  0.58561199  0.43870242    -0.11800
C496        C  0.00786653  0.58683524  0.45313434     0.05300
C497        C  0.98763045  0.61492472  0.44918854    -0.07000
C498        C  0.99475906  0.64050628  0.43084843    -0.07800
C499        C  0.02195302  0.63891962  0.41637703    -0.02300
C500        C  0.04224211  0.61098353  0.42025512     0.04500
N501        N  0.56893928  0.60661211  0.40445002     0.67000
H502        H  0.55086107  0.56409183  0.44115810     0.15900
H503        H  0.97906811  0.66194088  0.42805629     0.15600
N504        N  0.95982137  0.61797892  0.46358693     0.74700
O505        O  0.59364088  0.59587095  0.41420929    -0.38800
O506        O  0.56642941  0.60777024  0.38027934    -0.38700
O507        O  0.95907345  0.63718526  0.48327646    -0.39400
O508        O  0.93515422  0.60566784  0.45462508    -0.39500
C509        C  0.11366605  0.61060690  0.67888981    -0.11800
C510        C  0.14398162  0.60016067  0.67377624     0.05300
C511        C  0.16834824  0.61856430  0.68556870    -0.07000
C512        C  0.16213975  0.64729584  0.70120349    -0.07800
C513        C  0.13194013  0.65833089  0.70571103    -0.02300
C514        C  0.10744286  0.63937611  0.69464204     0.04500
N515        N  0.07623735  0.64973245  0.69827247     0.67000
H516        H  0.09458542  0.59680104  0.67018331     0.15900
H517        H  0.18125662  0.66119618  0.70978307     0.15600
N518        N  0.19965363  0.60941549  0.68113771     0.74700
O519        O  0.06678436  0.67762001  0.68833121    -0.38800
O520        O  0.05723582  0.62893175  0.70837080    -0.38700
O521        O  0.21419216  0.62302488  0.66267079    -0.39400
O522        O  0.21387983  0.59171589  0.69765344    -0.39500
C523        C  0.06755599  0.55057740  0.57201632    -0.11800
C524        C  0.06532841  0.51733722  0.56091850     0.05300
C525        C  0.08638202  0.49150072  0.56848883    -0.07000
C526        C  0.10865369  0.49917798  0.58709826    -0.07800
C527        C  0.11045033  0.53228739  0.59850253    -0.02300
C528        C  0.08998545  0.55840795  0.59032373     0.04500
N529        N  0.09247101  0.59344953  0.59948403     0.67000
H530        H  0.05213973  0.57106450  0.56607614     0.15900
H531        H  0.12412305  0.47878867  0.59309532     0.15600
N532        N  0.08497114  0.45709125  0.55811146     0.74700
O533        O  0.11584779  0.61148676  0.59392572    -0.38800
O534        O  0.06985728  0.60767932  0.61034968    -0.38700
O535        O  0.10513486  0.44720442  0.54230408    -0.39400
O536        O  0.06646271  0.43517334  0.56753521    -0.39500
C537        C  0.40016382  0.44637813  0.59921380    -0.11800
C538        C  0.37093189  0.46136101  0.59692735     0.05300
C539        C  0.36612145  0.48610860  0.57713220    -0.07000
C540        C  0.39034130  0.49516115  0.56050272    -0.07800
C541        C  0.41928521  0.47954332  0.56261116    -0.02300
C542        C  0.42408917  0.45511121  0.58247223     0.04500
N543        N  0.45326541  0.43907489  0.58623729     0.67000
H544        H  0.40482272  0.42774262  0.61430151     0.15900
H545        H  0.38607529  0.51364854  0.54522800     0.15600
N546        N  0.33665168  0.50126745  0.57278948     0.74700
O547        O  0.47383483  0.45483021  0.59880944    -0.38800
O548        O  0.45684603  0.40747410  0.58043050    -0.38700
O549        O  0.33393985  0.53393203  0.57251692    -0.39400
O550        O  0.31487673  0.48251645  0.56461649    -0.39500
C551        C  0.24120270  0.45674666  0.63687708    -0.11800
C552        C  0.26840867  0.47649585  0.63642771     0.05300
C553        C  0.26674490  0.51319247  0.63679975    -0.07000
C554        C  0.23793976  0.52924381  0.63751783    -0.07800
C555        C  0.21082492  0.50945515  0.63760534    -0.02300
C556        C  0.21251808  0.47291834  0.63710853     0.04500
N557        N  0.18533253  0.45194677  0.63742150     0.67000
H558        H  0.24221144  0.42859689  0.63648214     0.15900
H559        H  0.23668516  0.55737974  0.63801429     0.15600
N560        N  0.29391733  0.53444590  0.63730905     0.74700
O561        O  0.17352675  0.44207765  0.61648375    -0.38800
O562        O  0.17611933  0.43880660  0.65830111    -0.38700
O563        O  0.29533737  0.56183176  0.62397463    -0.39400
O564        O  0.31495943  0.52821410  0.65328852    -0.39500
C565        C  0.11033800  0.14471511  0.18995348    -0.11800
C566        C  0.13421157  0.16227371  0.20258417     0.05300
C567        C  0.16470971  0.15127777  0.19858284    -0.07000
C568        C  0.17071316  0.12308259  0.18234347    -0.07800
C569        C  0.14689690  0.10560366  0.16940904    -0.02300
C570        C  0.11625091  0.11669352  0.17344353     0.04500
N571        N  0.09073820  0.09966683  0.16135998     0.67000
H572        H  0.08681402  0.15286379  0.19284795     0.15900
H573        H  0.19434984  0.11536581  0.17947008     0.15600
N574        N  0.18990587  0.16820214  0.21105732     0.74700
O575        O  0.08474830  0.06828398  0.16653863    -0.38800
O576        O  0.07163423  0.11726111  0.14868758    -0.38700
O577        O  0.20078402  0.15553088  0.23145556    -0.39400
O578        O  0.20425328  0.19223957  0.19961007    -0.39500
C579        C  0.05390117  0.36656567  0.17428822    -0.11800
C580        C  0.07709653  0.38903582  0.16548463     0.05300
C581        C  0.10767223  0.38337163  0.17346612    -0.07000
C582        C  0.11436126  0.35568844  0.18996047    -0.07800
C583        C  0.09118221  0.33328315  0.19889117    -0.02300
C584        C  0.06062739  0.33880000  0.19071899     0.04500
N585        N  0.03605475  0.31671821  0.19904718     0.67000
H586        H  0.03040672  0.37024787  0.16810260     0.15900
H587        H  0.13789680  0.35194610  0.19600079     0.15600
N588        N  0.13209083  0.40614300  0.16573613     0.74700
O589        O  0.02317500  0.32228129  0.22040764    -0.38800
O590        O  0.02451818  0.29490930  0.18363669    -0.38700
O591        O  0.13211254  0.43751692  0.17291280    -0.39400
O592        O  0.15535109  0.39401374  0.15442738    -0.39500
C593        C  0.49269468  0.36821268  0.42415086    -0.11800
C594        C  0.46215795  0.36115614  0.41697755     0.05300
C595        C  0.43840878  0.38087171  0.42833878    -0.07000
C596        C  0.44555593  0.40691229  0.44619537    -0.07800
C597        C  0.47605948  0.41430582  0.45305954    -0.02300
C598        C  0.49979158  0.39437958  0.44200394     0.04500
N599        N  0.03126224  0.40082152  0.44817003     0.67000
H600        H  0.01131662  0.35329222  0.41590309     0.15900
H601        H  0.42695608  0.42184692  0.45445008     0.15600
N602        N  0.40696623  0.37585236  0.42131740     0.74700
O603        O  0.04482133  0.38130975  0.46394344    -0.38800
O604        O  0.04656450  0.42255453  0.43518087    -0.38700
O605        O  0.38774228  0.36594312  0.43798996    -0.39400
O606        O  0.39769280  0.38583732  0.39957160    -0.39500
C607        C  0.02491662  0.30499197  0.34546389    -0.11800
C608        C  0.99760724  0.28542152  0.34630391     0.05300
C609        C  0.99416348  0.25709613  0.32900960    -0.07000
C610        C  0.01720680  0.25000436  0.31095735    -0.07800
C611        C  0.04412018  0.27010979  0.30987580    -0.02300
C612        C  0.04805277  0.29754050  0.32771789     0.04500
N613        N  0.07552032  0.31803616  0.32832683     0.67000
H614        H  0.52846249  0.32660949  0.35854402     0.15900
H615        H  0.01390673  0.22859214  0.29765689     0.15600
N616        N  0.96765787  0.23499637  0.32950019     0.74700
O617        O  0.07553805  0.34840625  0.31914604    -0.38800
O618        O  0.09824181  0.30779090  0.34122598    -0.38700
O619        O  0.44948396  0.23461645  0.31062847    -0.39400
O620        O  0.96479281  0.21246097  0.34699099    -0.39500
C621        C  0.29308610  0.13294407  0.42989490    -0.11800
C622        C  0.26851341  0.14408072  0.41443124     0.05300
C623        C  0.23982560  0.12682574  0.41696155    -0.07000
C624        C  0.23633475  0.09945987  0.43460373    -0.07800
C625        C  0.26111876  0.08820345  0.44957403    -0.02300
C626        C  0.28963312  0.10536053  0.44719698     0.04500
N627        N  0.31519081  0.09591891  0.46287272     0.67000
H628        H  0.31508947  0.14550508  0.42872581     0.15900
H629        H  0.21442444  0.08645010  0.43609906     0.15600
N630        N  0.21395251  0.13630708  0.40170588     0.74700
O631        O  0.33707602  0.07894399  0.45321746    -0.38800
O632        O  0.31803592  0.10899232  0.48502408    -0.38700
O633        O  0.20918959  0.12107594  0.38055502    -0.39400
O634        O  0.19336006  0.15535669  0.41123278    -0.39500
C635        C  0.20280886  0.20901692  0.34838761    -0.11800
C636        C  0.23312601  0.21978025  0.34355609     0.05300
C637        C  0.23913753  0.24043177  0.32152259    -0.07000
C638        C  0.21513474  0.24905056  0.30480180    -0.07800
C639        C  0.18512444  0.23717753  0.30931854    -0.02300
C640        C  0.17889817  0.21773791  0.33178831     0.04500
N641        N  0.14828143  0.20738293  0.33844145     0.67000
H642        H  0.19733073  0.19419553  0.36550105     0.15900
H643        H  0.22031455  0.26381953  0.28757047     0.15600
N644        N  0.26957236  0.25146722  0.31503711     0.74700
O645        O  0.14195297  0.17563862  0.34181998    -0.38800
O646        O  0.12854686  0.23015264  0.34390403    -0.38700
O647        O  0.28834837  0.22982445  0.30589579    -0.39400
O648        O  0.27609187  0.28348547  0.31460911    -0.39500
C649        C  0.33925310  0.26865497  0.36808486    -0.11800
C650        C  0.33685014  0.23593267  0.38014675     0.05300
C651        C  0.36316321  0.22205836  0.39237799    -0.07000
C652        C  0.39070599  0.24088546  0.39228348    -0.07800
C653        C  0.39289263  0.27302819  0.37994211    -0.02300
C654        C  0.36707981  0.28708316  0.36768105     0.04500
N655        N  0.36901829  0.31954220  0.35426087     0.67000
H656        H  0.31954992  0.27991246  0.35861412     0.15900
H657        H  0.41075095  0.23003337  0.40156082     0.15600
N658        N  0.36283517  0.18851645  0.40427671     0.74700
O659        O  0.38742166  0.32302352  0.33564842    -0.38800
O660        O  0.35027803  0.34352784  0.35928698    -0.38700
O661        O  0.36080127  0.16155023  0.39049668    -0.39400
O662        O  0.37003212  0.18564023  0.42768485    -0.39500
C663        C  0.36106549  0.13147712  0.69318803    -0.11800
C664        C  0.38472319  0.15138195  0.70422875     0.05300
C665        C  0.41550131  0.14262076  0.69867534    -0.07000
C666        C  0.42196109  0.11536001  0.68171766    -0.07800
C667        C  0.39834610  0.09615157  0.66997846    -0.02300
C668        C  0.36747880  0.10384197  0.67633986     0.04500
N669        N  0.34245083  0.08350089  0.66639484     0.67000
H670        H  0.33737238  0.13746622  0.69761476     0.15900
H671        H  0.44573350  0.10986823  0.67720170     0.15600
N672        N  0.44058837  0.16108687  0.71009413     0.74700
O673        O  0.34277015  0.05077728  0.66838136    -0.38800
O674        O  0.31838124  0.09827292  0.65864268    -0.38700
O675        O  0.45032660  0.15211305  0.73193442    -0.39400
O676        O  0.45569082  0.18280140  0.69692315    -0.39500
C677        C  0.31937207  0.33710544  0.69555511    -0.11800
C678        C  0.34979073  0.32640928  0.69917783     0.05300
C679        C  0.37351834  0.34404812  0.68605015    -0.07000
C680        C  0.36647017  0.37154469  0.66944826    -0.07800
C681        C  0.33597871  0.38242950  0.66581310    -0.02300
C682        C  0.31226869  0.36482509  0.67924198     0.04500
N683        N  0.28076962  0.37421645  0.67630803     0.67000
H684        H  0.30084410  0.32394724  0.70559516     0.15900
H685        H  0.38514035  0.38463724  0.65956845     0.15600
N686        N  0.40480232  0.33378668  0.68879065     0.74700
O687        O  0.26588820  0.36364123  0.65699371    -0.38800
O688        O  0.26683437  0.38904543  0.69454143    -0.38700
O689        O  0.41657244  0.31338690  0.67255359    -0.39400
O690        O  0.42179397  0.34920281  0.70484547    -0.39500
C691        C  0.23781265  0.40083118  0.93393383    -0.11800
C692        C  0.21210975  0.41723300  0.94464342     0.05300
C693        C  0.18252887  0.40623509  0.93706274    -0.07000
C694        C  0.17921071  0.37880972  0.91956704    -0.07800
C695        C  0.20489934  0.36182893  0.90914340    -0.02300
C696        C  0.23461463  0.37334318  0.91636168     0.04500
N697        N  0.26180386  0.35677867  0.90695496     0.67000
H698        H  0.26065379  0.40908356  0.93953465     0.15900
H699        H  0.15625040  0.37075398  0.91417235     0.15600
N700        N  0.15554878  0.42178240  0.94759186     0.74700
O701        O  0.28357258  0.37502084  0.89813845    -0.38800
O702        O  0.26622322  0.32495141  0.91149336    -0.38700
O703        O  0.14080996  0.44371683  0.93454815    -0.39400
O704        O  0.14408768  0.40997632  0.96813278    -0.39500
C705        C  0.24242491  0.25216294  0.82958643    -0.11800
C706        C  0.24025376  0.28704549  0.83759303     0.05300
C707        C  0.26176243  0.31154803  0.82800160    -0.07000
C708        C  0.28564211  0.30026996  0.81200896    -0.07800
C709        C  0.28816938  0.26532932  0.80436800    -0.02300
C710        C  0.26602019  0.24117330  0.81313881     0.04500
N711        N  0.26765145  0.20522304  0.80626744     0.67000
H712        H  0.22621242  0.23297969  0.83671327     0.15900
H713        H  0.30184667  0.31938996  0.80478865     0.15600
N714        N  0.25893611  0.34812418  0.83313082     0.74700
O715        O  0.28598216  0.18547387  0.81794393    -0.38800
O716        O  0.24796368  0.19231090  0.79120474    -0.38700
O717        O  0.28263616  0.36639759  0.83705504    -0.39400
O718        O  0.23360008  0.36311118  0.82951211    -0.39500
C719        C  0.98996415  0.12859312  0.92519830    -0.11800
C720        C  0.01891901  0.13240589  0.91355365     0.05300
C721        C  0.04234726  0.10869676  0.91981312    -0.07000
C722        C  0.03666077  0.08254675  0.93792054    -0.07800
C723        C  0.00786144  0.07894148  0.94983548    -0.02300
C724        C  0.48430827  0.10240203  0.94332912     0.04500
N725        N  0.45464945  0.10038270  0.95505977     0.67000
H726        H  0.47177631  0.14668541  0.92079611     0.15900
H727        H  0.05489172  0.06446105  0.94229407     0.15600
N728        N  0.07132789  0.10928777  0.90680621     0.74700
O729        O  0.45052555  0.11336057  0.97710053    -0.38800
O730        O  0.43175809  0.09111956  0.94183586    -0.38700
O731        O  0.09582019  0.10569585  0.91944021    -0.39400
O732        O  0.07203565  0.10628770  0.88264461    -0.39500
C733        C  0.42691976  0.20934291  0.83296218    -0.11800
C734        C  0.43472433  0.22786681  0.81060843     0.05300
C735        C  0.46505969  0.24027445  0.80761143    -0.07000
C736        C  0.48696988  0.23317973  0.82654608    -0.07800
C737        C  0.47946343  0.21344075  0.84847042    -0.02300
C738        C  0.44871114  0.20247310  0.85199395     0.04500
N739        N  0.43895773  0.18519140  0.87501847     0.67000
H740        H  0.40352009  0.20050179  0.83592170     0.15900
H741        H  0.01038621  0.24175947  0.82333102     0.15600
N742        N  0.47456313  0.25810681  0.78477548     0.74700
O743        O  0.44100591  0.20063014  0.89639712    -0.38800
O744        O  0.42481825  0.15650512  0.87367058    -0.38700
O745        O  0.48561910  0.28844416  0.78632478    -0.39400
O746        O  0.47619306  0.24176687  0.76374482    -0.39500
C747        C  0.08382273  0.26332866  0.88188954    -0.11800
C748        C  0.08485263  0.22695861  0.87997833     0.05300
C749        C  0.11351868  0.21035611  0.87734462    -0.07000
C750        C  0.14038843  0.23050455  0.87612426    -0.07800
C751        C  0.13923378  0.26689370  0.87748600    -0.02300
C752        C  0.11065613  0.28337916  0.88072450     0.04500
N753        N  0.10834733  0.32046974  0.88172534     0.67000
H754        H  0.06194256  0.27631949  0.88396486     0.15900
H755        H  0.16229419  0.21768018  0.87371624     0.15600
N756        N  0.11565448  0.17344412  0.87423262     0.74700
O757        O  0.11443672  0.33835458  0.86200396    -0.38800
O758        O  0.09676028  0.33498168  0.90121444    -0.38700
O759        O  0.10143237  0.15875785  0.85606034    -0.39400
O760        O  0.13586279  0.15672396  0.88634124    -0.39500
C761        C  0.52423219  0.16208106  0.89594540     0.80700
N762        N  0.55172814  0.17902380  0.89541516    -0.77600
C763        C  0.55562092  0.20746508  0.88021358     0.83200
N764        N  0.53193244  0.21892971  0.86565346    -0.77500
C765        C  0.50445504  0.20217950  0.86592300     0.83300
N766        N  0.50085090  0.17376784  0.88112178    -0.79200
C767        C  0.69974064  0.33248086  0.89101177     0.80700
N768        N  0.67306737  0.31413358  0.89202436    -0.77600
C769        C  0.66804688  0.28701245  0.87583952     0.83200
N770        N  0.68989515  0.27818141  0.85839114    -0.77500
C771        C  0.71642798  0.29676863  0.85672423     0.83300
N772        N  0.72122920  0.32369759  0.87323733    -0.79200
O773        O  0.91269206  0.25706399  0.77396782    -0.57300
C774        C  0.85575390  0.29699401  0.71674119     0.75300
O775        O  0.85065008  0.18540113  0.73086513    -0.58500
C776        C  0.91078902  0.23340568  0.79089297     0.75300
C777        C  0.81374344  0.25567083  0.78687925     0.77700
Cd778      Cd  0.86404511  0.24110611  0.75275835     1.37500
O779        O  0.88064566  0.29389781  0.72909152    -0.57300
O780        O  0.83601985  0.27636937  0.78329168    -0.56100
C781        C  0.87695094  0.18160992  0.72074606     0.77700
O782        O  0.81460109  0.22714735  0.77454379    -0.58500
O783        O  0.83554943  0.27382682  0.72062487    -0.56900
O784        O  0.88708825  0.21426505  0.79019960    -0.56900
O785        O  0.89631150  0.20540520  0.72523497    -0.56100
C786        C  0.77385233  0.17351157  0.39619737     0.80700
N787        N  0.80102434  0.19095994  0.39651205    -0.77600
C788        C  0.80685144  0.21729021  0.37981329     0.83200
N789        N  0.78479068  0.22656194  0.36275986    -0.77500
C790        C  0.75743395  0.20952605  0.36206516     0.83300
N791        N  0.75220628  0.18304182  0.37887165    -0.79200
C792        C  0.95581091  0.33295500  0.39808787     0.80700
N793        N  0.92789054  0.31710790  0.39721537    -0.77600
C794        C  0.92245223  0.29120899  0.38008962     0.83200
N795        N  0.94497620  0.28079055  0.36392793    -0.77500
C796        C  0.97305359  0.29611163  0.36457993     0.83300
N797        N  0.97824856  0.32220049  0.38176253    -0.79200
O798        O  0.66307589  0.26652995  0.27276565    -0.57300
C799        C  0.59942730  0.30475977  0.21671292     0.75300
O800        O  0.60081317  0.19504797  0.23033092    -0.58500
C801        C  0.66122893  0.24260767  0.28956921     0.75300
C802        C  0.56738566  0.26265210  0.28984738     0.77700
Cd803      Cd  0.61379697  0.25022881  0.25224145     1.37500
O804        O  0.62493335  0.30429013  0.22848668    -0.57300
O805        O  0.58910809  0.28372078  0.28533217    -0.56100
C806        C  0.62682641  0.19201874  0.21954480     0.77700
O807        O  0.56657814  0.23517337  0.27622317    -0.58500
O808        O  0.58136201  0.27959882  0.22107195    -0.56900
O809        O  0.63804923  0.22272845  0.28833870    -0.56900
O810        O  0.64615255  0.21595418  0.22385877    -0.56100
C811        C  0.82983484  0.41241391  0.64848906     0.80700
N812        N  0.80306925  0.43015094  0.65002299    -0.77600
C813        C  0.79798798  0.45816027  0.63480954     0.83200
N814        N  0.81986068  0.46844218  0.61772661    -0.77500
C815        C  0.84665748  0.45073160  0.61564618     0.83300
N816        N  0.85141656  0.42291336  0.63125315    -0.79200
C817        C  0.64947091  0.57132251  0.65528882     0.80700
N818        N  0.67612754  0.55319997  0.65549203    -0.77600
C819        C  0.68119051  0.52756054  0.63803338     0.83200
N820        N  0.65973057  0.52048157  0.61985768    -0.77500
C821        C  0.63321742  0.53883155  0.61912235     0.83300
N822        N  0.62814993  0.56385373  0.63707526    -0.79200
O823        O  0.53930642  0.48344650  0.52824832    -0.57300
C824        C  0.98207815  0.44331588  0.47121625     0.75300
O825        O  0.94125124  0.51241612  0.52733030    -0.58500
C826        C  0.54077967  0.51086628  0.54178571     0.75300
C827        C  0.50126329  0.55799196  0.47146621     0.77700
Cd828      Cd  0.99144505  0.50042192  0.50619846     1.37500
O829        O  0.50754159  0.44751488  0.48259014    -0.57300
O830        O  0.51925111  0.53240725  0.47323134    -0.56100
C831        C  0.94355446  0.48762272  0.54332425     0.77700
O832        O  0.97783375  0.55713524  0.48595885    -0.58500
O833        O  0.96151571  0.46543224  0.47622597    -0.56900
O834        O  0.51984327  0.53301507  0.53821732    -0.56900
O835        O  0.96762486  0.46956163  0.54171814    -0.56100
C836        C  0.77434606  0.67262754  0.90274354     0.80700
N837        N  0.75306069  0.68386440  0.88578614    -0.77600
C838        C  0.75900951  0.71055431  0.86951609     0.83200
N839        N  0.78710942  0.72601210  0.87006335    -0.77500
C840        C  0.80884969  0.71499779  0.88690120     0.83300
N841        N  0.80240921  0.68821527  0.90316313    -0.79200
C842        C  0.96265125  0.82099767  0.90455654     0.80700
N843        N  0.93520362  0.80412007  0.90485333    -0.77600
C844        C  0.92889858  0.77895553  0.88727781     0.83200
N845        N  0.95006757  0.77083428  0.86901159    -0.77500
C846        C  0.97734239  0.78816668  0.86801578     0.83300
N847        N  0.98320427  0.81316102  0.88586143    -0.79200
O848        O  0.63740276  0.80424060  0.73369752    -0.57300
C849        C  0.66905240  0.73865050  0.79070202     0.75300
O850        O  0.57085915  0.73581474  0.77623538    -0.58500
C851        C  0.61304859  0.80801762  0.72075113     0.75300
C852        C  0.62710090  0.68937311  0.72211212     0.77700
Cd853      Cd  0.62033460  0.74946733  0.75473299     1.37500
O854        O  0.67192806  0.76110642  0.77300101    -0.57300
O855        O  0.64850548  0.71111455  0.72583884    -0.56100
C856        C  0.57232152  0.76121308  0.79178886     0.77700
O857        O  0.60191300  0.69558667  0.73335792    -0.58500
O858        O  0.64413987  0.72161641  0.79115447    -0.56900
O859        O  0.59295909  0.78443088  0.72326571    -0.56900
O860        O  0.59546607  0.78098512  0.78953420    -0.56100
C861        C  0.84277710  0.93103608  0.15644003     0.80700
N862        N  0.81510867  0.94709553  0.15624528    -0.77600
C863        C  0.81001181  0.97433362  0.14019418     0.83200
N864        N  0.83257273  0.98482207  0.12383171    -0.77500
C865        C  0.86013513  0.96855238  0.12347870     0.83300
N866        N  0.86492279  0.94172134  0.13990017    -0.79200
C867        C  0.65486674  0.07732635  0.15109118     0.80700
N868        N  0.63526173  0.06832752  0.13202112    -0.77600
C869        C  0.64211787  0.04290191  0.11483199     0.83200
N870        N  0.66942951  0.02623642  0.11689815    -0.77500
C871        C  0.68961165  0.03541523  0.13566488     0.83300
N872        N  0.68238503  0.06108734  0.15254065    -0.79200
O873        O  0.97946785  0.04711041  0.98219973    -0.57300
C874        C  0.95394322  0.99198512  0.04649294     0.75300
O875        O  0.51275344  0.94182319  0.98349263    -0.58500
C876        C  0.50341117  0.05027790  0.96853734     0.75300
C877        C  0.54874143  0.01088251  0.03876729     0.77700
Cd878      Cd  0.99792761  0.99578047  0.00580391     1.37500
O879        O  0.95137429  0.01436058  0.02872908    -0.57300
O880        O  0.52761814  0.03223849  0.03389213    -0.56100
C881        C  0.98604697  0.93487786  0.97521381     0.77700
O882        O  0.54733957  0.98183286  0.02718636    -0.58500
O883        O  0.97633536  0.97132297  0.04472063    -0.56900
O884        O  0.52394488  0.02759565  0.97183391    -0.56900
O885        O  0.96509917  0.95586970  0.98148113    -0.56100
C886        C  0.56923172  0.41691559  0.14704882     0.80700
N887        N  0.58943065  0.42587758  0.12830404    -0.77600
C888        C  0.58253038  0.45083201  0.11087103     0.83200
N889        N  0.55528788  0.46754357  0.11260123    -0.77500
C890        C  0.53473275  0.45872109  0.13118247     0.83300
N891        N  0.54156544  0.43304193  0.14817595    -0.79200
C892        C  0.88764953  0.57497324  0.14518761     0.80700
N893        N  0.91410980  0.55662966  0.14601713    -0.77600
C894        C  0.91765972  0.52765129  0.13142490     0.83200
N895        N  0.89469836  0.51725801  0.11543918    -0.77500
C896        C  0.86823001  0.53574284  0.11401518     0.83300
N897        N  0.86504556  0.56449946  0.12902538    -0.79200
O898        O  0.67638296  0.51507179  0.02289423    -0.57300
C899        C  0.73920468  0.55862423  0.96953492     0.75300
O900        O  0.77269959  0.48252341  0.02399313    -0.58500
C901        C  0.67462730  0.48655033  0.03509699     0.75300
C902        C  0.71674505  0.44531871  0.96376668     0.77700
Cd903      Cd  0.72515673  0.49957302  0.00114263     1.37500
O904        O  0.71293720  0.55518640  0.97981190    -0.57300
O905        O  0.69674222  0.46846636  0.96764706    -0.56100
C906        C  0.77150700  0.50766406  0.03981470     0.77700
O907        O  0.74102726  0.44747051  0.97710735    -0.58500
O908        O  0.75819378  0.53458550  0.97378336    -0.56900
O909        O  0.69585622  0.46488764  0.03102912    -0.56900
O910        O  0.74889019  0.52784388  0.03753311    -0.56100
C911        C  0.52878087  0.66668533  0.39757265     0.80700
N912        N  0.50722789  0.67579005  0.38004236    -0.77600
C913        C  0.51291291  0.70122481  0.36247949     0.83200
N914        N  0.54037136  0.71808631  0.36318276    -0.77500
C915        C  0.56225678  0.70924058  0.38053978     0.83300
N916        N  0.55643092  0.68330524  0.39767333    -0.79200
C917        C  0.70984452  0.82907967  0.39580605     0.80700
N918        N  0.68229151  0.81232597  0.39601510    -0.77600
C919        C  0.67642500  0.78648309  0.37882892     0.83200
N920        N  0.69815081  0.77749993  0.36129382    -0.77500
C921        C  0.72562205  0.79436100  0.36059550     0.83300
N922        N  0.73120552  0.81990738  0.37807244    -0.79200
O923        O  0.88730972  0.80346150  0.23034048    -0.57300
C924        C  0.91818856  0.73341462  0.28726404     0.75300
O925        O  0.82079959  0.73581761  0.27225985    -0.58500
C926        C  0.86262677  0.80772963  0.21783500     0.75300
C927        C  0.87613796  0.69314568  0.21370049     0.77700
Cd928      Cd  0.87045049  0.74848896  0.25065337     1.37500
O929        O  0.92046559  0.75918933  0.27212805    -0.57300
O930        O  0.89739147  0.71503751  0.21760886    -0.56100
C931        C  0.82182202  0.76262262  0.28652894     0.77700
O932        O  0.85199228  0.69684035  0.22705955    -0.58500
O933        O  0.89436568  0.71477303  0.28478533    -0.56900
O934        O  0.84251326  0.78416437  0.22023683    -0.56900
O935        O  0.84509608  0.78206588  0.28385653    -0.56100
C936        C  0.59448163  0.92430105  0.65171575     0.80700
N937        N  0.61628011  0.93348282  0.63429863    -0.77600
C938        C  0.61055070  0.95794567  0.61606387     0.83200
N939        N  0.58232044  0.97284920  0.61527302    -0.77500
C940        C  0.56012691  0.96385742  0.63251482     0.83300
N941        N  0.56655196  0.93961277  0.65062835    -0.79200
C942        C  0.90656286  0.07054238  0.64974737     0.80700
N943        N  0.88735526  0.06470187  0.62966814    -0.77600
C944        C  0.89544695  0.04325066  0.61005060     0.83200
N945        N  0.92318049  0.02732067  0.61065586    -0.77500
C946        C  0.94263748  0.03308381  0.63060820     0.83300
N947        N  0.93434279  0.05466188  0.65006806    -0.79200
O948        O  0.70302120  0.01249571  0.52418958    -0.57300
C949        C  0.75716911  0.05793635  0.46684018     0.75300
O950        O  0.80120786  0.98455137  0.52041330    -0.58500
C951        C  0.70448653  0.98633502  0.53898735     0.75300
C952        C  0.74075353  0.94131373  0.46602353     0.77700
Cd953      Cd  0.75105920  0.99888731  0.50064688     1.37500
O954        O  0.73173378  0.05077788  0.47749843    -0.57300
O955        O  0.72082939  0.96419430  0.47078958    -0.56100
C956        C  0.80166838  0.01118280  0.53486957     0.77700
O957        O  0.76647903  0.94524309  0.47704412    -0.58500
O958        O  0.77914194  0.03758927  0.47155310    -0.56900
O959        O  0.72746519  0.96684574  0.53591575    -0.56900
O960        O  0.77890937  0.03136632  0.53316730    -0.56100
C961        C  0.82892662  0.05259508  0.56360859    -0.11800
C962        C  0.82718010  0.01908409  0.55287981     0.05300
C963        C  0.84975359  0.99447374  0.55953887    -0.07000
C964        C  0.87270160  0.00337964  0.57729804    -0.07800
C965        C  0.87365257  0.03651217  0.58873881    -0.02300
C966        C  0.85208433  0.06178538  0.58102526     0.04500
N967        N  0.85397825  0.09714800  0.58990329     0.67000
H968        H  0.81247913  0.07219906  0.55799978     0.15900
H969        H  0.88906347  0.98371897  0.58298984     0.15600
N970        N  0.84898610  0.95990605  0.54939289     0.74700
O971        O  0.87935811  0.11315130  0.58943737    -0.38800
O972        O  0.82981597  0.11384857  0.59487855    -0.38700
O973        O  0.86950622  0.95016844  0.53385970    -0.39400
O974        O  0.83040795  0.93785864  0.55855739    -0.39500
C975        C  0.65459607  0.00015011  0.56027075    -0.11800
C976        C  0.68066619  0.97892280  0.55878571     0.05300
C977        C  0.68358951  0.95127599  0.57652032    -0.07000
C978        C  0.66092937  0.94569421  0.59517328    -0.07800
C979        C  0.63463871  0.96667922  0.59661281    -0.02300
C980        C  0.63175665  0.99442103  0.57886880     0.04500
N981        N  0.60617235  0.01750992  0.57960442     0.67000
H982        H  0.65191134  0.02161753  0.54698908     0.15900
H983        H  0.66381961  0.92407507  0.60827873     0.15600
N984        N  0.70919865  0.92818657  0.57578241     0.74700
O985        O  0.60514033  0.04115515  0.59643952    -0.38800
O986        O  0.58728864  0.01776325  0.56122726    -0.38700
O987        O  0.72877112  0.92898919  0.59363824    -0.39400
O988        O  0.70939495  0.90333914  0.55989257    -0.39500
C989        C  0.52493496  0.00982863  0.61580916    -0.11800
C990        C  0.52934827  0.98063475  0.63171196     0.05300
C991        C  0.00436114  0.96885210  0.64704229    -0.07000
C992        C  0.97652030  0.98682766  0.64681129    -0.07800
C993        C  0.97260639  0.01594896  0.63115699    -0.02300
C994        C  0.99687302  0.02743296  0.61544518     0.04500
N995        N  0.99354967  0.05752097  0.59955931     0.67000
H996        H  0.54346077  0.01960071  0.60392393     0.15900
H997        H  0.95757602  0.97748360  0.65849437     0.15600
N998        N  0.00622318  0.93788913  0.66212355     0.74700
O999        O  0.49109319  0.08725600  0.60981643    -0.38800
O1000       O  0.99537617  0.05478265  0.57541612    -0.38700
O1001       O  0.50741239  0.93987485  0.68625145    -0.39400
O1002       O  0.00117862  0.90877817  0.65166637    -0.39500
C1003       C  0.70269693  0.90527565  0.44225919    -0.11800
C1004       C  0.73355269  0.91168314  0.44867754     0.05300
C1005       C  0.75635126  0.88971578  0.43840890    -0.07000
C1006       C  0.74805051  0.86278619  0.42154871    -0.07800
C1007       C  0.71719796  0.85679613  0.41478578    -0.02300
C1008       C  0.69436329  0.87810512  0.42571620     0.04500
N1009       N  0.66267710  0.87348491  0.41951316     0.67000
H1010       H  0.68472119  0.92151794  0.45010698     0.15900
H1011       H  0.76597628  0.84654626  0.41361473     0.15600
N1012       N  0.78806795  0.89479411  0.44436363     0.74700
O1013       O  0.64575689  0.85540989  0.43406749    -0.38800
O1014       O  0.65060740  0.89237195  0.40251814    -0.38700
O1015       O  0.80129280  0.87427525  0.45962988    -0.39400
O1016       O  0.80378145  0.91646011  0.43165789    -0.39500
C1017       C  0.77705361  0.80501497  0.34098872    -0.11800
C1018       C  0.74962353  0.78553491  0.34115403     0.05300
C1019       C  0.74605830  0.75866181  0.32269918    -0.07000
C1020       C  0.76976922  0.75159887  0.30517933    -0.07800
C1021       C  0.79721692  0.77092714  0.30533432    -0.02300
C1022       C  0.80055331  0.79812654  0.32343879     0.04500
N1023       N  0.82778907  0.81897450  0.32455162     0.67000
H1024       H  0.78058348  0.82595646  0.35463855     0.15900
H1025       H  0.76655374  0.73085914  0.29130021     0.15600
N1026       N  0.71858229  0.73830804  0.32125655     0.74700
O1027       O  0.82820855  0.84863182  0.31417376    -0.38800
O1028       O  0.84966333  0.80997609  0.33891108    -0.38700
O1029       O  0.69888489  0.74490918  0.30420563    -0.39400
O1030       O  0.71607032  0.71089393  0.33443498    -0.39500
C1031       C  0.97032826  0.74313613  0.30596022    -0.11800
C1032       C  0.94208308  0.72540590  0.30675405     0.05300
C1033       C  0.93747401  0.69981231  0.32590127    -0.07000
C1034       C  0.96081689  0.69244868  0.34348721    -0.09400
C1035       C  0.98920820  0.71003632  0.34277108    -0.02300
C1036       C  0.99388427  0.73554863  0.32343123     0.04500
N1037       N  0.52255666  0.75346031  0.32068189     0.67000
H1038       H  0.97451240  0.76258445  0.29128567     0.15900
H1039       H  0.95633783  0.67287322  0.35799815     0.15600
N1040       N  0.90901873  0.68134821  0.32817807     0.74700
O1041       O  0.54489239  0.73831982  0.31008461    -0.38800
O1042       O  0.52397270  0.78581006  0.32468140    -0.38700
O1043       O  0.90786590  0.64927393  0.32305660    -0.39400
O1044       O  0.88631137  0.69580023  0.33874067    -0.39500
C1045       C  0.64750191  0.73135981  0.38378218    -0.11800
C1046       C  0.64705158  0.76735503  0.37967482     0.05300
C1047       C  0.61867866  0.78435333  0.37679792    -0.07000
C1048       C  0.59138813  0.76482235  0.37732708    -0.07800
C1049       C  0.59176629  0.72860628  0.38093794    -0.02300
C1050       C  0.62021714  0.71188673  0.38463164     0.04500
N1051       N  0.62201110  0.67503022  0.38793913     0.67000
H1052       H  0.66926795  0.71823220  0.38613034     0.15900
H1053       H  0.56971621  0.77802182  0.37465798     0.15600
N1054       N  0.61722175  0.82112396  0.37249007     0.74700
O1055       O  0.61360122  0.65516794  0.36992243    -0.38800
O1056       O  0.63702717  0.66267688  0.40652049    -0.38700
O1057       O  0.63206811  0.83472039  0.35417541    -0.39400
O1058       O  0.59843166  0.83938407  0.38505425    -0.39500
C1059       C  0.91028452  0.62478515  0.16926163    -0.11800
C1060       C  0.88394432  0.60635256  0.16152526     0.05300
C1061       C  0.85485452  0.61837215  0.16962917    -0.07000
C1062       C  0.85287858  0.64696634  0.18626249    -0.07800
C1063       C  0.87930840  0.66453628  0.19475279    -0.02300
C1064       C  0.90821051  0.65386196  0.18536100     0.04500
N1065       N  0.93578312  0.67189209  0.19220027     0.67000
H1066       H  0.93276278  0.61670728  0.16269174     0.15900
H1067       H  0.83043843  0.65518982  0.19281729     0.15600
N1068       N  0.82709239  0.60137981  0.16186098     0.74700
O1069       O  0.95147225  0.66157964  0.21105722    -0.38800
O1070       O  0.94675018  0.69456903  0.17719312    -0.38700
O1071       O  0.81997230  0.57220983  0.17131885    -0.39400
O1072       O  0.80774166  0.61761796  0.14848747    -0.39500
C1073       C  0.82127153  0.49201280  0.06051745    -0.11800
C1074       C  0.79541284  0.51363656  0.05967744     0.05300
C1075       C  0.79319272  0.54115296  0.07761931    -0.07000
C1076       C  0.81672861  0.54691196  0.09529379    -0.07800
C1077       C  0.84326148  0.52625239  0.09563082    -0.02300
C1078       C  0.84515780  0.49808786  0.07808222     0.04500
N1079       N  0.87120446  0.47566959  0.07737178     0.67000
H1080       H  0.82339094  0.47062351  0.04704055     0.15900
H1081       H  0.81422087  0.56847346  0.10853866     0.15600
N1082       N  0.76744164  0.56405127  0.07803939     0.74700
O1083       O  0.86830346  0.44436575  0.08427604    -0.38800
O1084       O  0.89491962  0.48496147  0.06515686    -0.38700
O1085       O  0.74787345  0.56154569  0.09587302    -0.39400
O1086       O  0.76724785  0.59036091  0.06354216    -0.39500
C1087       C  0.60705727  0.49395150  0.08148023    -0.11800
C1088       C  0.60450178  0.45944093  0.09011900     0.05300
C1089       C  0.62398201  0.43386825  0.07954197    -0.07000
C1090       C  0.64643123  0.44359187  0.06168635    -0.07800
C1091       C  0.64950230  0.47816919  0.05334353    -0.02300
C1092       C  0.62922979  0.50347190  0.06317548     0.04500
N1093       N  0.63151180  0.53908663  0.05555068     0.67000
H1094       H  0.59226873  0.51384027  0.08942820     0.15900
H1095       H  0.66124505  0.42362354  0.05389687     0.15600
N1096       N  0.62056162  0.39773971  0.08591449     0.74700
O1097       O  0.61631421  0.54972834  0.03650792    -0.38800
O1098       O  0.64475416  0.56078561  0.07005735    -0.38700
O1099       O  0.59480962  0.38292459  0.08338266    -0.39400
O1100       O  0.64391176  0.37960811  0.09074608    -0.39500
C1101       C  0.97790196  0.45667635  0.13440562    -0.11800
C1102       C  0.50490907  0.47650485  0.13238537     0.05300
C1103       C  0.50298951  0.51296856  0.13012148    -0.07000
C1104       C  0.97424815  0.52889952  0.12991452    -0.07800
C1105       C  0.94718213  0.50917078  0.13192786    -0.02300
C1106       C  0.94899416  0.47262706  0.13417865     0.04500
N1107       N  0.92193864  0.45154775  0.13703625     0.67000
H1108       H  0.97929691  0.42863561  0.13608494     0.15900
H1109       H  0.97303996  0.55695853  0.12821009     0.15600
N1110       N  0.53004251  0.53422098  0.12869852     0.74700
O1111       O  0.91948905  0.42325536  0.12484400    -0.38800
O1112       O  0.90223187  0.45897033  0.15397452    -0.38700
O1113       O  0.53348389  0.55541684  0.11038346    -0.39400
O1114       O  0.54909681  0.53419174  0.14695934    -0.39500
C1115       C  0.59988922  0.99919388  0.05863830    -0.11800
C1116       C  0.57323960  0.01952215  0.05745714     0.05300
C1117       C  0.57008765  0.04775415  0.07461576    -0.07000
C1118       C  0.59298313  0.05484620  0.09254503    -0.07800
C1119       C  0.61961957  0.03446181  0.09413753    -0.02300
C1120       C  0.62318842  0.00660959  0.07652212     0.04500
N1121       N  0.65018534  0.98565454  0.07628344     0.67000
H1122       H  0.60285043  0.97769162  0.04546596     0.15900
H1123       H  0.58944109  0.07645294  0.10545645     0.15600
N1124       N  0.54322010  0.06894443  0.07486205     0.74700
O1125       O  0.64831433  0.95388179  0.08216717    -0.38800
O1126       O  0.67427014  0.99703802  0.06562902    -0.38700
O1127       O  0.52102887  0.06108451  0.08940248    -0.39400
O1128       O  0.54345026  0.09790960  0.06346832    -0.39500
C1129       C  0.82372741  0.87725808  0.17748764    -0.11800
C1130       C  0.84807566  0.90046277  0.17303718     0.05300
C1131       C  0.87744470  0.89263202  0.18293627    -0.07000
C1132       C  0.88173845  0.86205022  0.19708241    -0.07800
C1133       C  0.85733663  0.83887208  0.20166414    -0.02300
C1134       C  0.82811438  0.84655390  0.19135212     0.04500
N1135       N  0.80262841  0.82338084  0.19449551     0.67000
H1136       H  0.80123734  0.88247159  0.16954482     0.15900
H1137       H  0.90428054  0.85670960  0.20484924     0.15600
N1138       N  0.90292775  0.91588892  0.17951561     0.74700
O1139       O  0.78354179  0.82848197  0.21236609    -0.38800
O1140       O  0.79672434  0.80120899  0.17725351    -0.38700
O1141       O  0.90150712  0.94664858  0.18793449    -0.39400
O1142       O  0.92801327  0.90464356  0.17073303    -0.39500
C1143       C  0.91350139  0.96255275  0.10735401    -0.11800
C1144       C  0.88450669  0.97807053  0.10461918     0.05300
C1145       C  0.87977343  0.00111046  0.08372241    -0.07000
C1146       C  0.90332005  0.00660822  0.06573341    -0.07800
C1147       C  0.93150697  0.98937244  0.06780666    -0.02300
C1148       C  0.93687398  0.96809537  0.08941105     0.04500
N1149       N  0.96595995  0.95194519  0.09360555     0.67000
H1150       H  0.91826973  0.94578796  0.12348041     0.15900
H1151       H  0.89892443  0.02320757  0.04940825     0.15600
N1152       N  0.85103618  0.01807069  0.07958511     0.74700
O1153       O  0.98893513  0.97032753  0.09965760    -0.38800
O1154       O  0.96777845  0.91922417  0.09459479    -0.38700
O1155       O  0.85041567  0.05076098  0.07747676    -0.39400
O1156       O  0.82816653  0.00044824  0.07218194    -0.39500
C1157       C  0.75328966  0.96963764  0.14244162    -0.11800
C1158       C  0.77945169  0.99083389  0.13940990     0.05300
C1159       C  0.77569561  0.02687270  0.13477312    -0.07000
C1160       C  0.74601280  0.04067142  0.13354286    -0.07800
C1161       C  0.72010008  0.01943204  0.13676791    -0.02300
C1162       C  0.72375537  0.98362251  0.14107708     0.04500
N1163       N  0.69774002  0.96142383  0.14501325     0.67000
H1164       H  0.75575912  0.94198105  0.14580041     0.15900
H1165       H  0.74309517  0.06830055  0.13030429     0.15600
N1166       N  0.80149374  0.05001686  0.13212092     0.74700
O1167       O  0.69200604  0.93734178  0.12919639    -0.38800
O1168       O  0.68318501  0.96272949  0.16599747    -0.38700
O1169       O  0.80069966  0.07438562  0.11587648    -0.39400
O1170       O  0.82296623  0.04941947  0.14838155    -0.39500
C1171       C  0.63344043  0.85860256  0.69573126    -0.11800
C1172       C  0.60820653  0.83830442  0.70362177     0.05300
C1173       C  0.57861020  0.84737172  0.69498562    -0.07000
C1174       C  0.57482018  0.87578494  0.67862451    -0.07800
C1175       C  0.59996781  0.89591947  0.67045327    -0.02300
C1176       C  0.62960726  0.88733898  0.67940275     0.04500
N1177       N  0.65586207  0.90807595  0.67282258     0.67000
H1178       H  0.65626817  0.85230132  0.70239455     0.15900
H1179       H  0.55196067  0.88167152  0.67196799     0.15600
N1180       N  0.55195710  0.82833557  0.70289688     0.74700
O1181       O  0.65711376  0.93961163  0.67955089    -0.38800
O1182       O  0.67915120  0.89403572  0.66286615    -0.38700
O1183       O  0.53786635  0.83712519  0.72308926    -0.39400
O1184       O  0.54011568  0.80616603  0.68793854    -0.39500
C1185       C  0.94510992  0.86351812  0.93763350    -0.11800
C1186       C  0.96952846  0.84860161  0.92384368     0.05300
C1187       C  0.99968627  0.86141888  0.92816917    -0.07000
C1188       C  0.00440434  0.88917968  0.94521110    -0.07800
C1189       C  0.97990195  0.90443049  0.95849299    -0.02300
C1190       C  0.95000325  0.89104269  0.95480280     0.04500
N1191       N  0.92433782  0.90479101  0.96853678     0.67000
H1192       H  0.92184220  0.85417785  0.93486456     0.15900
H1193       H  0.52755702  0.89893053  0.94801547     0.15600
N1194       N  0.52595342  0.84633035  0.91594788     0.74700
O1195       O  0.90642460  0.92570353  0.95753877    -0.38800
O1196       O  0.91712523  0.89226832  0.99015879    -0.38700
O1197       O  0.54502547  0.86560244  0.90437614    -0.39400
O1198       O  0.53276992  0.81504145  0.92039547    -0.39500
C1199       C  0.52004451  0.74991636  0.80994969    -0.11800
C1200       C  0.54829007  0.76761717  0.81150143     0.05300
C1201       C  0.55281092  0.79178752  0.83161746    -0.07000
C1202       C  0.52937217  0.79800389  0.84936003    -0.07800
C1203       C  0.50092130  0.78056804  0.84789839    -0.02300
C1204       C  0.49632857  0.75637970  0.82765293     0.04500
N1205       N  0.96756524  0.73891097  0.82411675     0.67000
H1206       H  0.51598917  0.73158969  0.79452742     0.15900
H1207       H  0.53386642  0.81648736  0.86450920     0.15600
N1208       N  0.58134205  0.80984427  0.83480662     0.74700
O1209       O  0.94498313  0.75543627  0.81525641    -0.38800
O1210       O  0.96630321  0.70615471  0.82532169    -0.38700
O1211       O  0.58297770  0.84200822  0.83015232    -0.39400
O1212       O  0.60344527  0.79492356  0.84580987    -0.39500
C1213       C  0.73509414  0.63886282  0.92705121    -0.11800
C1214       C  0.76618046  0.64403920  0.92066623     0.05300
C1215       C  0.78831340  0.62160242  0.93126737    -0.07000
C1216       C  0.77899914  0.59445379  0.94749232    -0.07800
C1217       C  0.74782853  0.58886827  0.95338965    -0.02300
C1218       C  0.72580193  0.61173112  0.94321090     0.04500
N1219       N  0.69381239  0.60728278  0.94843771     0.67000
H1220       H  0.71771667  0.65595220  0.91945827     0.15900
H1221       H  0.79632199  0.57723207  0.95511656     0.15600
N1222       N  0.82011873  0.62485986  0.92483205     0.74700
O1223       O  0.68163499  0.62355463  0.96687664    -0.38800
O1224       O  0.67702503  0.59140015  0.93247849    -0.38700
O1225       O  0.83937542  0.63260999  0.94203988    -0.39400
O1226       O  0.82940021  0.61564168  0.90285968    -0.39500
C1227       C  0.68340283  0.71792523  0.83390603    -0.11800
C1228       C  0.69273103  0.73280256  0.81054810     0.05300
C1229       C  0.72380585  0.74242474  0.80724697    -0.07000
C1230       C  0.74480745  0.73671909  0.82723353    -0.07800
C1231       C  0.73553348  0.72096012  0.85040829    -0.02300
C1232       C  0.70416877  0.71234751  0.85385560     0.04500
N1233       N  0.69270552  0.69881372  0.87770179     0.67000
H1234       H  0.65947821  0.71127793  0.83703676     0.15900
H1235       H  0.76877350  0.74306438  0.82405012     0.15600
N1236       N  0.73479419  0.75592226  0.78327783     0.74700
O1237       O  0.69530241  0.71655260  0.89803999    -0.38800
O1238       O  0.67651282  0.67148105  0.87787023    -0.38700
O1239       O  0.74876414  0.78475187  0.78267532    -0.39400
O1240       O  0.73455476  0.73684601  0.76349692    -0.39500
C1241       C  0.87231636  0.78292126  0.88575374    -0.11800
C1242       C  0.89851283  0.76204440  0.88731634     0.05300
C1243       C  0.89520163  0.72561842  0.88868325    -0.07000
C1244       C  0.86574734  0.71071145  0.88871819    -0.07800
C1245       C  0.83948066  0.73161312  0.88721524    -0.02300
C1246       C  0.84293076  0.76805028  0.88556340     0.04500
N1247       N  0.81679732  0.79034014  0.88461944     0.67000
H1248       H  0.87470706  0.81096308  0.88468561     0.15900
H1249       H  0.86337719  0.68268872  0.88995048     0.15600
N1250       N  0.92143561  0.70362624  0.89102324     0.74700
O1251       O  0.80081747  0.79510786  0.90456993    -0.38800
O1252       O  0.81139545  0.80777986  0.86459893    -0.38700
O1253       O  0.93851851  0.70604844  0.91053375    -0.39400
O1254       O  0.92570150  0.67938279  0.87504902    -0.39500
C1255       C  0.53518527  0.58559910  0.43872607    -0.11800
C1256       C  0.50786407  0.58682347  0.45315493     0.05300
C1257       C  0.48762864  0.61491254  0.44920531    -0.07000
C1258       C  0.49475976  0.64049202  0.43086410    -0.07800
C1259       C  0.52195604  0.63890429  0.41639562    -0.02300
C1260       C  0.54224473  0.61096884  0.42027805     0.04500
N1261       N  0.06893424  0.60662857  0.40442380     0.67000
H1262       H  0.05086155  0.56410438  0.44113154     0.15900
H1263       H  0.47906906  0.66192615  0.42806909     0.15600
N1264       N  0.45981781  0.61796858  0.46360106     0.74700
O1265       O  0.09363675  0.59588370  0.41417919    -0.38800
O1266       O  0.06642139  0.60779353  0.38025352    -0.38700
O1267       O  0.45907025  0.63716842  0.48329407    -0.39400
O1268       O  0.43514994  0.60566584  0.45463443    -0.39500
C1269       C  0.61367114  0.61058756  0.67891110    -0.11800
C1270       C  0.64398711  0.60014919  0.67379011     0.05300
C1271       C  0.66835426  0.61856118  0.68557460    -0.07000
C1272       C  0.66214558  0.64729543  0.70120667    -0.07800
C1273       C  0.63194519  0.65832365  0.70572031    -0.02300
C1274       C  0.60744785  0.63935811  0.69466169     0.04500
N1275       N  0.57624140  0.64970435  0.69830138     0.67000
H1276       H  0.59458997  0.59677446  0.67021163     0.15900
H1277       H  0.68126276  0.66120312  0.70977931     0.15600
N1278       N  0.69965985  0.60941790  0.68113823     0.74700
O1279       O  0.56677121  0.67757588  0.68834728    -0.38800
O1280       O  0.55725517  0.62890780  0.70842440    -0.38700
O1281       O  0.71419396  0.62303514  0.66267204    -0.39400
O1282       O  0.71389060  0.59171493  0.69764920    -0.39500
C1283       C  0.56753866  0.55056249  0.57204441    -0.11800
C1284       C  0.56531541  0.51732481  0.56094195     0.05300
C1285       C  0.58637441  0.49149094  0.56850667    -0.07000
C1286       C  0.60864838  0.49916877  0.58711400    -0.07800
C1287       C  0.61044199  0.53227614  0.59852176    -0.02300
C1288       C  0.58997023  0.55839376  0.59034979     0.04500
N1289       N  0.59245103  0.59343374  0.59951439     0.67000
H1290       H  0.55211774  0.57104759  0.56610900     0.15900
H1291       H  0.62412279  0.47878169  0.59310605     0.15600
N1292       N  0.58496785  0.45708376  0.55812477     0.74700
O1293       O  0.61582348  0.61147783  0.59395538    -0.38800
O1294       O  0.56983643  0.60765577  0.61038439    -0.38700
O1295       O  0.60512901  0.44720658  0.54231176    -0.39400
O1296       O  0.56646722  0.43515827  0.56754960    -0.39500
C1297       C  0.90017570  0.44638866  0.59919275    -0.11800
C1298       C  0.87094417  0.46137289  0.59690682     0.05300
C1299       C  0.86613446  0.48612153  0.57711218    -0.07000
C1300       C  0.89035443  0.49517325  0.56048259    -0.07800
C1301       C  0.91929770  0.47955386  0.56259042    -0.02300
C1302       C  0.92410112  0.45512112  0.58245107     0.04500
N1303       N  0.95327699  0.43908378  0.58621571     0.67000
H1304       H  0.90483422  0.42775253  0.61428011     0.15900
H1305       H  0.88608899  0.51366136  0.54520824     0.15600
N1306       N  0.83666545  0.50128271  0.57277013     0.74700
O1307       O  0.97384588  0.45483663  0.59879015    -0.38800
O1308       O  0.95685784  0.40748415  0.58040557    -0.38700
O1309       O  0.83395644  0.53394758  0.57249457    -0.39400
O1310       O  0.81488877  0.48253296  0.56459881    -0.39500
C1311       C  0.74121641  0.45675647  0.63687180    -0.11800
C1312       C  0.76842050  0.47650874  0.63640889     0.05300
C1313       C  0.76675301  0.51320561  0.63677173    -0.07000
C1314       C  0.73794615  0.52925320  0.63749604    -0.07800
C1315       C  0.71083357  0.50946073  0.63759833    -0.02300
C1316       C  0.71253032  0.47292423  0.63710918     0.04500
N1317       N  0.68534707  0.45194917  0.63743681     0.67000
H1318       H  0.74222740  0.42860669  0.63648370     0.15900
H1319       H  0.73668829  0.55738912  0.63798648     0.15600
N1320       N  0.79392319  0.53446365  0.63726608     0.74700
O1321       O  0.67352816  0.44207501  0.61650554    -0.38800
O1322       O  0.67614873  0.43881197  0.65832199    -0.38700
O1323       O  0.79533073  0.56184695  0.62392795    -0.39400
O1324       O  0.81497566  0.52824048  0.65323782    -0.39500
C1325       C  0.61034252  0.14472831  0.18994297    -0.11800
C1326       C  0.63421353  0.16229440  0.20257235     0.05300
C1327       C  0.66471467  0.15131259  0.19856449    -0.07000
C1328       C  0.67072346  0.12312183  0.18232297    -0.07800
C1329       C  0.64691005  0.10563486  0.16939138    -0.02300
C1330       C  0.61626184  0.11671217  0.17342925     0.04500
N1331       N  0.59075421  0.09967691  0.16134507     0.67000
H1332       H  0.58681643  0.15286688  0.19284105     0.15900
H1333       H  0.69436206  0.11541521  0.17944525     0.15600
N1334       N  0.68990909  0.16824784  0.21103351     0.74700
O1335       O  0.58476672  0.06829501  0.16652867    -0.38800
O1336       O  0.57165790  0.11726046  0.14865652    -0.38700
O1337       O  0.70080877  0.15557033  0.23142146    -0.39400
O1338       O  0.70423786  0.19229944  0.19958622    -0.39500
C1339       C  0.55389346  0.36654875  0.17427482    -0.11800
C1340       C  0.57708555  0.38902791  0.16547825     0.05300
C1341       C  0.60766022  0.38337221  0.17346433    -0.07000
C1342       C  0.61435189  0.35569143  0.18995967    -0.07800
C1343       C  0.59117579  0.33327817  0.19888504    -0.02300
C1344       C  0.56062209  0.33878373  0.19070528     0.04500
N1345       N  0.53605302  0.31669097  0.19902512     0.67000
H1346       H  0.53039992  0.37022414  0.16808443     0.15900
H1347       H  0.63788683  0.35195704  0.19600443     0.15600
N1348       N  0.63207460  0.40615088  0.16573826     0.74700
O1349       O  0.52316846  0.32224028  0.22038553    -0.38800
O1350       O  0.52452422  0.29488549  0.18360792    -0.38700
O1351       O  0.63210945  0.43751199  0.17294554    -0.39400
O1352       O  0.65532056  0.39403547  0.15440065    -0.39500
C1353       C  0.99270057  0.36821564  0.42413537    -0.11800
C1354       C  0.96216328  0.36115700  0.41696449     0.05300
C1355       C  0.93841521  0.38087698  0.42832282    -0.07000
C1356       C  0.94556361  0.40692264  0.44617508    -0.07800
C1357       C  0.97606762  0.41431669  0.45303783    -0.02300
C1358       C  0.99979889  0.39438774  0.44198377     0.04500
N1359       N  0.53125435  0.40081104  0.44819344     0.67000
H1360       H  0.51131111  0.35329161  0.41591683     0.15900
H1361       H  0.92696432  0.42185961  0.45442835     0.15600
N1362       N  0.90697243  0.37585588  0.42130332     0.74700
O1363       O  0.54480983  0.38129864  0.46396863    -0.38800
O1364       O  0.54655967  0.42254349  0.43520631    -0.38700
O1365       O  0.88775184  0.36593715  0.43797551    -0.39400
O1366       O  0.89769515  0.38584823  0.39956058    -0.39500
C1367       C  0.52489968  0.30503205  0.34544701    -0.11800
C1368       C  0.49759611  0.28545186  0.34629492     0.05300
C1369       C  0.49415676  0.25711927  0.32900652    -0.07000
C1370       C  0.51720031  0.25002583  0.31095496    -0.07800
C1371       C  0.54410938  0.27013805  0.30986712    -0.02300
C1372       C  0.54803565  0.29758039  0.32770062     0.04500
N1373       N  0.57549665  0.31808775  0.32830061     0.67000
H1374       H  0.02848402  0.32656193  0.35856676     0.15900
H1375       H  0.51390420  0.22860594  0.29766057     0.15600
N1376       N  0.46765604  0.23501242  0.32950355     0.74700
O1377       O  0.57550746  0.34844562  0.31909786    -0.38800
O1378       O  0.59821702  0.30786937  0.34121294    -0.38700
O1379       O  0.94949474  0.23460147  0.31061904    -0.39400
O1380       O  0.46480269  0.21247463  0.34699391    -0.39500
C1381       C  0.79308525  0.13294534  0.42989051    -0.11800
C1382       C  0.76851187  0.14408376  0.41442828     0.05300
C1383       C  0.73982365  0.12683001  0.41695949    -0.07000
C1384       C  0.73633314  0.09946280  0.43460064    -0.07800
C1385       C  0.76111773  0.08820459  0.44956963    -0.02300
C1386       C  0.78963224  0.10536158  0.44719251     0.04500
N1387       N  0.81519009  0.09591960  0.46286803     0.67000
H1388       H  0.81508899  0.14550580  0.42872076     0.15900
H1389       H  0.71442287  0.08645342  0.43609599     0.15600
N1390       N  0.71394981  0.13631376  0.40170553     0.74700
O1391       O  0.83708715  0.07896964  0.45320755    -0.38800
O1392       O  0.81802020  0.10896784  0.48502885    -0.38700
O1393       O  0.70918465  0.12108449  0.38055430    -0.39400
O1394       O  0.69335940  0.15536492  0.41123385    -0.39500
C1395       C  0.70280607  0.20903048  0.34838921    -0.11800
C1396       C  0.73312487  0.21978417  0.34355338     0.05300
C1397       C  0.73913822  0.24042770  0.32151618    -0.07000
C1398       C  0.71513507  0.24904884  0.30479630    -0.07800
C1399       C  0.68512280  0.23718514  0.30931738    -0.02300
C1400       C  0.67889492  0.21775379  0.33179078     0.04500
N1401       N  0.64827632  0.20741057  0.33844853     0.67000
H1402       H  0.69732727  0.19421577  0.36550572     0.15900
H1403       H  0.72031590  0.26381094  0.28756194     0.15600
N1404       N  0.76957510  0.25145066  0.31502566     0.74700
O1405       O  0.64194512  0.17567159  0.34185091    -0.38800
O1406       O  0.62854175  0.23018941  0.34389013    -0.38700
O1407       O  0.78834770  0.22979577  0.30589518    -0.39400
O1408       O  0.77610152  0.28346682  0.31458507    -0.39500
C1409       C  0.83924899  0.26866599  0.36810018    -0.11800
C1410       C  0.83685135  0.23592905  0.38014068     0.05300
C1411       C  0.86317056  0.22203623  0.39235070    -0.07000
C1412       C  0.89071451  0.24086123  0.39225765    -0.07800
C1413       C  0.89289580  0.27302042  0.37993877    -0.02300
C1414       C  0.86707658  0.28709314  0.36769770     0.04500
N1415       N  0.86900983  0.31956731  0.35429640     0.67000
H1416       H  0.81954040  0.27993562  0.35864510     0.15900
H1417       H  0.91076447  0.22999526  0.40151847     0.15600
N1418       N  0.86284721  0.18847773  0.40422458     0.74700
O1419       O  0.88742518  0.32307884  0.33569524    -0.38800
O1420       O  0.85025342  0.34353587  0.35932486    -0.38700
O1421       O  0.86077511  0.16153113  0.39042735    -0.39400
O1422       O  0.87008073  0.18556489  0.42762222    -0.39500
C1423       C  0.86105323  0.13149759  0.69317024    -0.11800
C1424       C  0.88471262  0.15138763  0.70422274     0.05300
C1425       C  0.91549006  0.14261064  0.69868158    -0.07000
C1426       C  0.92194843  0.11535088  0.68172267    -0.07800
C1427       C  0.89833264  0.09615697  0.66997130    -0.02300
C1428       C  0.86746468  0.10386203  0.67632162     0.04500
N1429       N  0.84243368  0.08353612  0.66636489     0.67000
H1430       H  0.83736022  0.13749907  0.69758786     0.15900
H1431       H  0.94572129  0.10984757  0.67721650     0.15600
N1432       N  0.94057784  0.16105836  0.71011546     0.74700
O1433       O  0.84273999  0.05081161  0.66834562    -0.38800
O1434       O  0.81837160  0.09832213  0.65861096    -0.38700
O1435       O  0.95028006  0.15209090  0.73196855    -0.39400
O1436       O  0.95571383  0.18274927  0.69695008    -0.39500
C1437       C  0.81937869  0.33711675  0.69553261    -0.11800
C1438       C  0.84979715  0.32642279  0.69916041     0.05300
C1439       C  0.87352663  0.34406320  0.68603593    -0.07000
C1440       C  0.86648063  0.37155978  0.66943319    -0.07800
C1441       C  0.83598942  0.38244221  0.66579328    -0.02300
C1442       C  0.81227739  0.36483540  0.67921792     0.04500
N1443       N  0.78077822  0.37422268  0.67627732     0.67000
H1444       H  0.80084902  0.32395733  0.70556959     0.15900
H1445       H  0.88515209  0.38465404  0.65955626     0.15600
N1446       N  0.90481050  0.33380358  0.68878066     0.74700
O1447       O  0.76590424  0.36364745  0.65695898    -0.38800
O1448       O  0.76683563  0.38904889  0.69450799    -0.38700
O1449       O  0.91658023  0.31339102  0.67255222    -0.39400
O1450       O  0.92180235  0.34923147  0.70482920    -0.39500
C1451       C  0.73780843  0.40081203  0.93395505    -0.11800
C1452       C  0.71210349  0.41723467  0.94464393     0.05300
C1453       C  0.68252441  0.40625316  0.93704502    -0.07000
C1454       C  0.67920949  0.37882319  0.91955277    -0.07800
C1455       C  0.70489967  0.36182266  0.90915026    -0.02300
C1456       C  0.73461345  0.37331941  0.91638655     0.04500
N1457       N  0.76180256  0.35673060  0.90700314     0.67000
H1458       H  0.76064835  0.40905052  0.93957037     0.15900
H1459       H  0.65625075  0.37077998  0.91414318     0.15600
N1460       N  0.65554192  0.42182300  0.94755122     0.74700
O1461       O  0.78359366  0.37495274  0.89820282    -0.38800
O1462       O  0.76619320  0.32489841  0.91154300    -0.38700
O1463       O  0.64083193  0.44376788  0.93449413    -0.39400
O1464       O  0.64405018  0.41002885  0.96808394    -0.39500
C1465       C  0.74243152  0.25216641  0.82958405    -0.11800
C1466       C  0.74026625  0.28704491  0.83760163     0.05300
C1467       C  0.76178058  0.31154753  0.82801877    -0.07000
C1468       C  0.78565760  0.30027340  0.81202177    -0.07800
C1469       C  0.78817744  0.26533706  0.80436825    -0.02300
C1470       C  0.76602442  0.24118098  0.81313240     0.04500
N1471       N  0.76764843  0.20523447  0.80624905     0.67000
H1472       H  0.72621529  0.23298270  0.83670429     0.15900
H1473       H  0.80186581  0.31939401  0.80480802     0.15600
N1474       N  0.75896283  0.34812111  0.83316087     0.74700
O1475       O  0.78597113  0.18547206  0.81792212    -0.38800
O1476       O  0.74796119  0.19233807  0.79117860    -0.38700
O1477       O  0.78266650  0.36638232  0.83710045    -0.39400
O1478       O  0.73363350  0.36312063  0.82953788    -0.39500
C1479       C  0.48997007  0.12858935  0.92520463    -0.11800
C1480       C  0.51892413  0.13239941  0.91355791     0.05300
C1481       C  0.54235010  0.10868562  0.91981356    -0.07000
C1482       C  0.53666195  0.08253259  0.93791831    -0.07800
C1483       C  0.50786347  0.07892987  0.94983517    -0.02300
C1484       C  0.98430363  0.10240818  0.94332486     0.04500
N1485       N  0.95464360  0.10038630  0.95505327     0.67000
H1486       H  0.97176874  0.14668577  0.92078685     0.15900
H1487       H  0.55489127  0.06444362  0.94228915     0.15600
N1488       N  0.57133016  0.10927575  0.90680587     0.74700
O1489       O  0.95051841  0.11335550  0.97709666    -0.38800
O1490       O  0.93175289  0.09112999  0.94182599    -0.38700
O1491       O  0.59582272  0.10568110  0.91943906    -0.39400
O1492       O  0.57203678  0.10627766  0.88264411    -0.39500
C1493       C  0.92691955  0.20933347  0.83294327    -0.11800
C1494       C  0.93472275  0.22787635  0.81059776     0.05300
C1495       C  0.96505479  0.24029889  0.80761048    -0.07000
C1496       C  0.98696317  0.23320013  0.82654592    -0.07800
C1497       C  0.97945838  0.21344286  0.84846183    -0.02300
C1498       C  0.94870894  0.20245898  0.85197540     0.04500
N1499       N  0.93895587  0.18515385  0.87499002     0.67000
H1500       H  0.90352246  0.20047924  0.83589598     0.15900
H1501       H  0.51039531  0.24172562  0.82332400     0.15600
N1502       N  0.97455723  0.25815286  0.78478360     0.74700
O1503       O  0.94096410  0.20058887  0.89637270    -0.38800
O1504       O  0.92485421  0.15644515  0.87362718    -0.38700
O1505       O  0.98559177  0.28849883  0.78634655    -0.39400
O1506       O  0.97620971  0.24182628  0.76374856    -0.39500
C1507       C  0.58383003  0.26332131  0.88188648    -0.11800
C1508       C  0.58486038  0.22695070  0.87998041     0.05300
C1509       C  0.61352697  0.21034825  0.87735040    -0.07000
C1510       C  0.64039670  0.23049689  0.87612922    -0.07800
C1511       C  0.63924146  0.26688629  0.87748665    -0.02300
C1512       C  0.61066324  0.28337191  0.88072060     0.04500
N1513       N  0.60835392  0.32046267  0.88171635     0.67000
H1514       H  0.56194964  0.27631254  0.88395871     0.15900
H1515       H  0.66230293  0.21767241  0.87372462     0.15600
N1516       N  0.61566351  0.17343571  0.87424314     0.74700
O1517       O  0.61444250  0.33834256  0.86199235    -0.38800
O1518       O  0.59676704  0.33497932  0.90120359    -0.38700
O1519       O  0.60144673  0.15874597  0.85606948    -0.39400
O1520       O  0.63586890  0.15671826  0.88635724    -0.39500
loop_ 
_geom_bond_atom_site_label_1 
_geom_bond_atom_site_label_2 
_geom_bond_distance 
_geom_bond_site_symmetry_2 
_ccdc_geom_bond_type 
C1            N2   1.361       .  A
C1            N6   1.357       .  A
C1          C720   1.481       .  S
N2            C3   1.360       .  A
C3            N4   1.357       .  A
C3          C748   1.474       .  S
N4            C5   1.356       .  A
C5            N6   1.357       .  A
C5         C1497   1.485   1_455  S
C7            N8   1.357       .  A
C7           N12   1.358       .  A
C7          C695   1.486       .  S
N8            C9   1.356       .  A
C9           N10   1.358       .  A
C9          C751   1.473       .  S
N10          C11   1.358       .  A
C11          N12   1.360       .  A
C11         C706   1.486       .  S
O13          C16   1.268       .  A
O13         Cd18   2.465       .  S
C14         C678   1.480       .  S
C14          O23   1.265       .  A
C14          O19   1.268       .  A
O15          C21   1.269       .  A
O15         Cd18   2.491       .  S
C16         C734   1.479       .  S
C16          O24   1.265       .  A
C17         C709   1.485       .  S
C17          O22   1.270       .  A
C17          O20   1.265       .  A
Cd18         O25   2.433       .  S
Cd18         O24   2.426       .  S
Cd18         O23   2.438       .  S
Cd18         O19   2.478       .  S
Cd18         O22   2.488       .  S
Cd18         O20   2.420       .  S
C21         C664   1.484       .  S
C21          O25   1.263       .  A
C26          N27   1.358       .  A
C26          N31   1.357       .  A
C26         C622   1.494       .  S
N27          C28   1.357       .  A
C28          N29   1.358       .  A
C28         C650   1.487       .  S
N29          C30   1.357       .  A
C30          N31   1.360       .  A
C30         C636   1.488       .  S
C32          N33   1.358       .  A
C32          N37   1.359       .  A
C32         C594   1.487       .  S
N33          C34   1.355       .  A
C34          N35   1.353       .  A
C34         C653   1.462       .  S
N35          C36   1.355       .  A
C36          N37   1.361       .  A
C36        C1368   1.489       .  S
O38          C41   1.271       .  A
O38         Cd43   2.477       .  S
C39         C583   1.483       .  S
C39          O48   1.264       .  A
C39          O44   1.270       .  A
O40          C46   1.270       .  A
O40         Cd43   2.470       .  S
C41         C639   1.479       .  S
C41          O49   1.265       .  A
C42         C611   1.481       .  S
C42          O47   1.272       .  A
C42          O45   1.264       .  A
Cd43         O50   2.431       .  S
Cd43         O49   2.404       .  S
Cd43         O48   2.435       .  S
Cd43         O44   2.464       .  S
Cd43         O47   2.470       .  S
Cd43         O45   2.404       .  S
C46         C566   1.479       .  S
C46          O50   1.264       .  A
C51          N52   1.357       .  A
C51          N56   1.358       .  A
C51         C681   1.488       .  S
N52          C53   1.356       .  A
C53          N54   1.359       .  A
C53         C552   1.475       .  S
N54          C55   1.359       .  A
C55          N56   1.360       .  A
C55         C538   1.493       .  S
C57          N58   1.358       .  A
C57          N62   1.357       .  A
C57         C510   1.487       .  S
N58          C59   1.358       .  A
C59          N60   1.357       .  A
C59         C555   1.471       .  S
N60          C61   1.358       .  A
C61          N62   1.358       .  A
C61         C527   1.482       .  S
O63          C66   1.268       .  A
O63        Cd828   2.473   1_455  S
C64         C597   1.483       .  S
C64          O73   1.265       .  A
C64         O829   1.267       .  A
O65          C71   1.270       .  A
O65         Cd68   2.491       .  S
C66         C524   1.482       .  S
C66          O74   1.265       .  A
C67         C496   1.488       .  S
C67          O70   1.265       .  A
C67         O832   1.269   1_455  A
Cd68         O75   2.425       .  S
Cd68         O73   2.433       .  S
Cd68         O72   2.497       .  S
Cd68        O823   2.473       .  S
Cd68        O834   2.420       .  S
Cd68        O829   2.479       .  S
Cd68        O830   2.430       .  S
O69         C824   1.268   1_455  A
O69        Cd828   2.479   1_455  S
O70        Cd828   2.430   1_455  S
C71         C541   1.487       .  S
C71          O75   1.264       .  A
O72         C827   1.269       .  A
O74        Cd828   2.420   1_455  S
C76          N77   1.354       .  A
C76          N81   1.359       .  A
C76         C454   1.483       .  S
N77          C78   1.354       .  A
C78          N79   1.358       .  A
C78         C471   1.484       .  S
N79          C80   1.361       .  A
C80          N81   1.361       .  A
C80         C485   1.477       .  S
C82          N83   1.358       .  A
C82          N87   1.355       .  A
C82         C426   1.489       .  S
N83          C84   1.357       .  A
C84          N85   1.360       .  A
C84         C482   1.472       .  S
N85          C86   1.360       .  A
C86          N87   1.358       .  A
C86        C1203   1.494       .  S
O88          C91   1.267       .  A
O88         Cd93   2.484       .  S
C89         C468   1.479       .  S
C89          O98   1.265       .  A
C89          O94   1.268       .  A
O90          C96   1.268       .  A
O90         Cd93   2.481       .  S
C91         C412   1.483       .  S
C91          O99   1.264       .  A
C92         C513   1.482       .  S
C92          O97   1.266       .  A
C92          O95   1.264       .  A
Cd93        O100   2.433       .  S
Cd93         O99   2.436       .  S
Cd93         O98   2.415       .  S
Cd93         O94   2.480       .  S
Cd93         O97   2.480       .  S
Cd93         O95   2.438       .  S
C96         C440   1.485       .  S
C96         O100   1.265       .  A
C101        N102   1.358       .  A
C101        N106   1.354       .  A
C101        C370   1.478       .  S
N102        C103   1.359       .  A
C103        N104   1.359       .  A
C103        C398   1.479       .  S
N104        C105   1.357       .  A
C105        N106   1.357       .  A
C105        C384   1.489       .  S
C107        N108   1.353       .  A
C107        N112   1.357       .  A
C107        C569   1.487       .  S
N108        C109   1.358       .  A
C109        N110   1.359       .  A
C109        C359   1.491       .  S
N110        C111   1.360       .  A
C111        N112   1.358       .  A
C111        C401   1.468       .  S
O113        C876   1.266       .  A
O113       Cd118   2.465   1_546  S
C114        C387   1.479       .  S
C114        O123   1.265       .  A
C114        O119   1.268   1_565  A
O115        C881   1.268   1_455  A
O115       Cd878   2.464   1_456  S
C116        C723   1.482       .  S
C116        O124   1.265       .  A
C116        O873   1.266   1_455  A
C117        C356   1.481       .  S
C117        O122   1.269   1_545  A
C117        O120   1.263       .  A
Cd118       O125   2.445   1_554  S
Cd118       O123   2.419       .  S
Cd118       O119   2.460   1_565  S
Cd118       O875   2.464   1_554  S
Cd118       O884   2.425   1_564  S
Cd118       O882   2.486       .  S
Cd118       O880   2.398   1_565  S
O120       Cd878   2.398   1_445  S
C121        C429   1.481       .  S
C121        O125   1.264       .  A
C121        O875   1.268       .  A
O122       Cd878   2.486   1_455  S
O124       Cd878   2.425   1_446  S
C126        N127   1.355       .  A
C126        N131   1.360       .  A
C126        C580   1.481       .  S
N127        C128   1.356       .  A
C128        N129   1.356       .  A
C128        C328   1.478       .  S
N129        C130   1.358       .  A
C130        N131   1.360       .  A
C130        C342   1.473       .  S
C132        N133   1.356       .  A
C132        N137   1.355       .  A
C132        C300   1.484       .  S
N133        C134   1.356       .  A
C134        N135   1.360       .  A
C134        C345   1.473       .  S
N135        C136   1.360       .  A
C136        N137   1.360       .  A
C136        C317   1.493       .  S
O138        C141   1.269       .  A
O138       Cd143   2.481       .  S
C139        C457   1.481       .  S
C139        O148   1.264       .  A
C139        O144   1.269       .  A
O140        C146   1.270       .  A
O140       Cd143   2.482       .  S
C141        C331   1.482       .  S
C141        O149   1.266       .  A
C142        C692   1.480       .  S
C142        O147   1.268       .  A
C142        O145   1.265       .  A
Cd143       O150   2.412       .  S
Cd143       O149   2.409       .  S
Cd143       O148   2.425   1_554  S
Cd143       O144   2.471   1_554  S
Cd143       O147   2.461   1_554  S
Cd143       O145   2.446   1_554  S
C146        C314   1.485       .  S
C146        O150   1.263       .  A
C151        N152   1.357       .  A
C151        N156   1.361       .  A
C151        C499   1.478       .  S
N152        C153   1.360       .  A
C153        N154   1.358       .  A
C153       C1035   1.496   1_455  S
N154        C155   1.359       .  A
C155        N156   1.360       .  A
C155        C289   1.482       .  S
C157        N158   1.359       .  A
C157        N162   1.357       .  A
C157        C247   1.485       .  S
N158        C159   1.359       .  A
C159        N160   1.359       .  A
C159        C286   1.473       .  S
N160        C161   1.359       .  A
C161        N162   1.358       .  A
C161        C258   1.493       .  S
O163        C166   1.269       .  A
O163       Cd168   2.471       .  S
C164        C272   1.488       .  S
C164        O173   1.265       .  A
C164        O169   1.269       .  A
O165        C171   1.270       .  A
O165       Cd168   2.482       .  S
C166        C373   1.483       .  S
C166        O174   1.263       .  A
C167        C303   1.482       .  S
C167        O172   1.268       .  A
C167        O170   1.264       .  A
Cd168       O175   2.423       .  S
Cd168       O174   2.428       .  S
Cd168       O173   2.437       .  S
Cd168       O169   2.483       .  S
Cd168       O172   2.465       .  S
Cd168       O170   2.447       .  S
C171        C261   1.485       .  S
C171        O175   1.264       .  A
C176        N177   1.357       .  A
C176        N181   1.356       .  A
C176        C415   1.484       .  S
N177        C178   1.360       .  A
C178        N179   1.361       .  A
C178        C219   1.493       .  S
N179        C180   1.361       .  A
C180        N181   1.356       .  A
C180        C230   1.492       .  S
C182        N183   1.357       .  A
C182        N187   1.359       .  A
C182        C667   1.484       .  S
N183        C184   1.358       .  A
C184        N185   1.358       .  A
C184        C205   1.482       .  S
N185        C186   1.358       .  A
C186        N187   1.357       .  A
C186        C233   1.466       .  S
O188        C191   1.269   1_545  A
O188       Cd193   2.481   1_545  S
C189        C625   1.480       .  S
C189        O198   1.264       .  A
C189        O194   1.267       .  A
O190        C196   1.269   1_565  A
O190       Cd193   2.481       .  S
C191        C216   1.487       .  S
C191        O199   1.264       .  A
C192        C244   1.484       .  S
C192        O197   1.268       .  A
C192        O195   1.263       .  A
Cd193       O200   2.424   1_565  S
Cd193       O199   2.433       .  S
Cd193       O198   2.445   1_565  S
Cd193       O194   2.483   1_565  S
Cd193       O197   2.493       .  S
Cd193       O195   2.430       .  S
C196        C202   1.485       .  S
C196        O200   1.266       .  A
C201        C202   1.405       .  A
C201        C206   1.400       .  A
C201        H208   1.084       .  S
C202        C203   1.412   1_545  A
C203        C204   1.403   1_565  A
C203        N210   1.429       .  S
C204        C205   1.406       .  A
C204        H209   1.084   1_545  S
C205        C206   1.414       .  A
C206        N207   1.437       .  S
N207        O211   1.263       .  A
N207        O212   1.263       .  A
N210        O214   1.262       .  A
N210        O213   1.262       .  A
C215        C216   1.404   1_545  A
C215        C220   1.403   1_545  A
C215        H222   1.084       .  S
C216        C217   1.414       .  A
C217        C218   1.399       .  A
C217        N224   1.430       .  S
C218        C219   1.407       .  A
C218        H223   1.083       .  S
C219        C220   1.417       .  A
C220        N221   1.429   1_565  S
N221        O225   1.262       .  A
N221        O226   1.262       .  A
N224        O228   1.262       .  A
N224        O227   1.262       .  A
C229        C230   1.409   1_545  A
C229        C994   1.401   1_455  A
C229        H236   1.082       .  S
C230        C991   1.420       .  A
C231        C232   1.400       .  A
C231        C990   1.420       .  A
C231        N238   1.429       .  S
C232        C233   1.396   1_565  A
C232        H237   1.084       .  S
C233        C234   1.405       .  A
C234        C989   1.401       .  A
C234        N235   1.430       .  S
N235        O999   1.262       .  A
N235        O240   1.262       .  A
N238        O242   1.262       .  A
N238       O1001   1.262       .  A
O239        N995   1.262       .  A
O241        N998   1.262       .  A
C243        C244   1.406       .  A
C243        C248   1.399       .  A
C243        H250   1.083       .  S
C244        C245   1.411       .  A
C245        C246   1.402       .  A
C245        N252   1.429       .  S
C246        C247   1.408       .  A
C246        H251   1.083       .  S
C247        C248   1.411       .  A
C248        N249   1.429       .  S
N249        O253   1.262       .  A
N249        O254   1.262       .  A
N252        O256   1.262       .  A
N252        O255   1.262       .  A
C257        C258   1.407       .  A
C257        C262   1.397       .  A
C257        H264   1.083       .  S
C258        C259   1.417       .  A
C259        C260   1.404       .  A
C259        N266   1.429       .  S
C260        C261   1.405       .  A
C260        H265   1.083       .  S
C261        C262   1.413       .  A
C262        N263   1.430       .  S
N263        O267   1.262       .  A
N263        O268   1.262       .  A
N266        O270   1.262       .  A
N266        O269   1.262       .  A
C271        C272   1.404       .  A
C271        C276   1.404       .  A
C271        H278   1.083       .  S
C272        C273   1.414       .  A
C273        C274   1.399       .  A
C273        N280   1.430       .  S
C274        C275   1.407       .  A
C274        H279   1.083       .  S
C275        C913   1.496       .  S
C275        C276   1.419       .  A
C276       N1037   1.430       .  S
N277       C1036   1.430   1_455  S
N277        O281   1.262       .  A
N277        O282   1.262       .  A
N280        O284   1.262       .  A
N280        O283   1.262       .  A
C285        C286   1.401       .  A
C285        C290   1.402       .  A
C285        H292   1.084       .  S
C286        C287   1.410       .  A
C287        C288   1.403       .  A
C287        N294   1.433       .  S
C288        C289   1.405       .  A
C288        H293   1.084       .  S
C289        C290   1.413       .  A
C290        N291   1.430       .  S
N291        O295   1.261       .  A
N291        O296   1.262       .  A
N294        O298   1.262       .  A
N294        O297   1.262       .  A
C299        C300   1.405       .  A
C299        C304   1.399       .  A
C299        H306   1.084       .  S
C300        C301   1.415       .  A
C301        C302   1.401       .  A
C301        N308   1.430       .  S
C302        C303   1.404       .  A
C302        H307   1.084       .  S
C303        C304   1.413       .  A
C304        N305   1.429       .  S
N305        O309   1.262       .  A
N305        O310   1.262       .  A
N308        O312   1.262       .  A
N308        O311   1.262       .  A
C313        C314   1.405       .  A
C313        C318   1.404       .  A
C313        H320   1.084       .  S
C314        C315   1.413       .  A
C315        C316   1.395       .  A
C315        N322   1.430       .  S
C316        C317   1.407       .  A
C316        H321   1.083       .  S
C317        C318   1.418       .  A
C318        N319   1.429       .  S
N319        O323   1.262       .  A
N319        O324   1.262       .  A
N322        O326   1.262       .  A
N322        O325   1.262       .  A
C327        C328   1.405       .  A
C327        C332   1.402       .  A
C327        H334   1.084       .  S
C328        C329   1.413       .  A
C329        C330   1.397       .  A
C329        N336   1.435       .  S
C330        C331   1.404       .  A
C330        H335   1.083       .  S
C331        C332   1.412       .  A
C332        N333   1.429       .  S
N333        O337   1.262       .  A
N333        O338   1.262       .  A
N336        O340   1.262       .  A
N336        O339   1.263       .  A
C341        C346   1.404       .  A
C341       C1102   1.403       .  A
C341        H348   1.084       .  S
C342        C343   1.410       .  A
C342       C1101   1.403   1_455  A
C343       C1104   1.398   1_455  A
C343        N350   1.432       .  S
C344        C345   1.403       .  A
C344       C1103   1.398       .  A
C344        H349   1.084       .  S
C345        C346   1.413       .  A
C346        N347   1.435       .  S
N347        O351   1.262       .  A
N347        O352   1.262       .  A
N350        O354   1.262       .  A
N350        O353   1.262       .  A
C355        C356   1.405   1_565  A
C355        C360   1.406   1_565  A
C355        H362   1.081       .  S
C356        C357   1.411       .  A
C357        C358   1.392       .  A
C357        N364   1.430       .  S
C358        C359   1.407       .  A
C358        H363   1.079       .  S
C359        C360   1.417       .  A
C360        N361   1.430   1_545  S
N361        O365   1.262       .  A
N361        O366   1.262       .  A
N364        O368   1.262       .  A
N364        O367   1.262       .  A
C369        C370   1.401       .  A
C369        C374   1.398       .  A
C369        H376   1.084       .  S
C370        C371   1.414       .  A
C371        C372   1.401       .  A
C371        N378   1.433       .  S
C372        C373   1.404       .  A
C372        H377   1.083       .  S
C373        C374   1.415       .  A
C374        N375   1.429       .  S
N375        O379   1.262       .  A
N375        O380   1.262       .  A
N378        O382   1.262       .  A
N378        O381   1.262       .  A
C383        C384   1.408       .  A
C383        C388   1.396       .  A
C383        H390   1.079       .  S
C384        C385   1.419   1_565  A
C385        C386   1.402       .  A
C385        N392   1.432       .  S
C386        C387   1.403   1_545  A
C386        H391   1.080       .  S
C387        C388   1.411       .  A
C388        N389   1.432       .  S
N389        O393   1.262       .  A
N389        O394   1.262       .  A
N392        O396   1.262       .  A
N392        O395   1.262       .  A
C397        C398   1.406       .  A
C397        C402   1.399       .  A
C397        H404   1.084       .  S
C398        C399   1.417   1_565  A
C399        C400   1.402       .  A
C399        N406   1.436       .  S
C400        C401   1.400       .  A
C400        H405   1.084       .  S
C401        C402   1.405   1_545  A
C402        N403   1.430       .  S
N403        O407   1.262       .  A
N403        O408   1.262       .  A
N406        O410   1.262       .  A
N406        O409   1.263       .  A
C411        C412   1.406       .  A
C411        C416   1.405       .  A
C411        H418   1.083       .  S
C412        C413   1.412       .  A
C413        C414   1.396       .  A
C413        N420   1.429       .  S
C414        C415   1.404       .  A
C414        H419   1.080       .  S
C415        C416   1.414       .  A
C416        N417   1.432       .  S
N417        O421   1.262       .  A
N417        O422   1.262       .  A
N420        O424   1.262       .  A
N420        O423   1.262       .  A
C425        C426   1.406       .  A
C425        C430   1.399       .  A
C425        H432   1.084       .  S
C426        C427   1.419       .  A
C427        C428   1.401       .  A
C427       N1194   1.433       .  S
C428        C429   1.401       .  A
C428       H1193   1.084       .  S
C429        C430   1.411       .  A
C430        N431   1.429       .  S
N431        O435   1.262       .  A
N431        O436   1.262       .  A
H433       C1188   1.084       .  S
N434       C1187   1.433   1_455  S
N434        O438   1.262       .  A
N434        O437   1.262       .  A
C439        C440   1.405       .  A
C439        C444   1.406   1_455  A
C439        H446   1.081       .  S
C440        C441   1.411       .  A
C441        C442   1.396       .  A
C441        N448   1.430       .  S
C442        C443   1.408       .  A
C442        H447   1.078       .  S
C443        C846   1.494   1_455  S
C443        C444   1.417   1_455  A
C444       N1205   1.430       .  S
N445       C1204   1.430       .  S
N445        O449   1.262       .  A
N445        O450   1.262       .  A
N448        O452   1.262       .  A
N448        O451   1.262       .  A
C453        C454   1.407       .  A
C453        C458   1.398       .  A
C453        H460   1.081       .  S
C454        C455   1.411       .  A
C455        C456   1.401       .  A
C455        N462   1.430       .  S
C456        C457   1.407       .  A
C456        H461   1.083       .  S
C457        C458   1.409       .  A
C458        N459   1.429       .  S
N459        O463   1.262       .  A
N459        O464   1.262       .  A
N462        O466   1.262       .  A
N462        O465   1.262       .  A
C467        C468   1.401       .  A
C467        C472   1.395       .  A
C467        H474   1.084       .  S
C468        C469   1.412       .  A
C469        C470   1.404       .  A
C469        N476   1.431       .  S
C470        C471   1.407       .  A
C470        H475   1.084       .  S
C471        C472   1.416       .  A
C472        N473   1.433       .  S
N473        O477   1.262       .  A
N473        O478   1.262       .  A
N476        O480   1.262       .  A
N476        O479   1.262       .  A
C481        C482   1.402       .  A
C481        C486   1.399       .  A
C481        H488   1.084       .  S
C482        C483   1.409       .  A
C483        C484   1.403       .  A
C483        N490   1.431       .  S
C484        C485   1.405       .  A
C484        H489   1.084       .  S
C485        C486   1.411       .  A
C486        N487   1.430       .  S
N487        O491   1.262       .  A
N487        O492   1.262       .  A
N490        O494   1.262       .  A
N490        O493   1.262       .  A
C495        C496   1.407       .  A
C495        C500   1.401       .  A
C495       H1262   1.083       .  S
C496        C497   1.413   1_455  A
C497        C498   1.404       .  A
C497        N504   1.429       .  S
C498        C499   1.404   1_655  A
C498        H503   1.084       .  S
C499        C500   1.410       .  A
C500       N1261   1.434       .  S
N501       C1260   1.434       .  S
N501        O505   1.262       .  A
N501        O506   1.262       .  A
H502       C1255   1.083       .  S
N504        O508   1.262       .  A
N504        O507   1.262       .  A
C509        C510   1.408       .  A
C509        C514   1.403       .  A
C509        H516   1.083       .  S
C510        C511   1.413       .  A
C511        C512   1.398       .  A
C511        N518   1.429       .  S
C512        C513   1.404       .  A
C512        H517   1.084       .  S
C513        C514   1.412       .  A
C514        N515   1.431       .  S
N515        O519   1.262       .  A
N515        O520   1.262       .  A
N518        O522   1.262       .  A
N518        O521   1.262       .  A
C523        C524   1.404       .  A
C523        C528   1.397       .  A
C523        H530   1.084       .  S
C524        C525   1.413       .  A
C525        C526   1.402       .  A
C525        N532   1.429       .  S
C526        C527   1.405       .  A
C526        H531   1.083       .  S
C527        C528   1.413       .  A
C528        N529   1.432       .  S
N529        O533   1.262       .  A
N529        O534   1.262       .  A
N532        O536   1.262       .  A
N532        O535   1.262       .  A
C537        C538   1.406       .  A
C537        C542   1.397       .  A
C537        H544   1.083       .  S
C538        C539   1.419       .  A
C539        C540   1.406       .  A
C539        N546   1.432       .  S
C540        C541   1.404       .  A
C540        H545   1.083       .  S
C541        C542   1.413       .  A
C542        N543   1.430       .  S
N543        O547   1.262       .  A
N543        O548   1.262       .  A
N546        O550   1.262       .  A
N546        O549   1.262       .  A
C551        C552   1.404       .  A
C551        C556   1.399       .  A
C551        H558   1.084       .  S
C552        C553   1.413       .  A
C553        C554   1.402       .  A
C553        N560   1.435       .  S
C554        C555   1.402       .  A
C554        H559   1.084       .  S
C555        C556   1.407       .  A
C556        N557   1.429       .  S
N557        O561   1.262       .  A
N557        O562   1.262       .  A
N560        O564   1.262       .  A
N560        O563   1.262       .  A
C565        C566   1.401       .  A
C565        C570   1.401       .  A
C565        H572   1.084       .  S
C566        C567   1.412       .  A
C567        C568   1.399       .  A
C567        N574   1.429       .  S
C568        C569   1.405       .  A
C568        H573   1.084       .  S
C569        C570   1.419       .  A
C570        N571   1.433       .  S
N571        O575   1.262       .  A
N571        O576   1.262       .  A
N574        O578   1.262       .  A
N574        O577   1.262       .  A
C579        C580   1.402       .  A
C579        C584   1.400       .  A
C579        H586   1.084       .  S
C580        C581   1.414       .  A
C581        C582   1.400       .  A
C581        N588   1.431       .  S
C582        C583   1.403       .  A
C582        H587   1.084       .  S
C583        C584   1.415       .  A
C584        N585   1.430       .  S
N585        O589   1.262       .  A
N585        O590   1.262       .  A
N588        O592   1.262       .  A
N588        O591   1.262       .  A
C593        C594   1.407       .  A
C593        C598   1.402       .  A
C593       H1360   1.083       .  S
C594        C595   1.414       .  A
C595        C596   1.399       .  A
C595        N602   1.431       .  S
C596        C597   1.404       .  A
C596        H601   1.084       .  S
C597        C598   1.412       .  A
C598       N1359   1.429       .  S
N599       C1358   1.429   1_455  S
N599        O603   1.262       .  A
N599        O604   1.262       .  A
H600       C1353   1.083   1_455  S
N602        O606   1.262       .  A
N602        O605   1.262       .  A
C607        C608   1.405   1_455  A
C607        C612   1.396       .  A
C607       H1374   1.083       .  S
C608        C796   1.489       .  S
C608        C609   1.419       .  A
C609        C610   1.401   1_655  A
C609        N616   1.430       .  S
C610        C611   1.402       .  A
C610        H615   1.084       .  S
C611        C612   1.413       .  A
C612        N613   1.430       .  S
N613        O617   1.262       .  A
N613        O618   1.262       .  A
H614       C1367   1.083       .  S
N616        O620   1.262       .  A
N616       O1379   1.262       .  A
O619       N1376   1.262       .  A
C621        C622   1.409       .  A
C621        C626   1.399       .  A
C621        H628   1.073       .  S
C622        C623   1.418       .  A
C623        C624   1.404       .  A
C623        N630   1.429       .  S
C624        C625   1.403       .  A
C624        H629   1.078       .  S
C625        C626   1.409       .  A
C626        N627   1.430       .  S
N627        O631   1.262       .  A
N627        O632   1.262       .  A
N630        O634   1.262       .  A
N630        O633   1.262       .  A
C635        C636   1.404       .  A
C635        C640   1.397       .  A
C635        H642   1.083       .  S
C636        C637   1.418       .  A
C637        C638   1.403       .  A
C637        N644   1.430       .  S
C638        C639   1.402       .  A
C638        H643   1.084       .  S
C639        C640   1.412       .  A
C640        N641   1.432       .  S
N641        O645   1.262       .  A
N641        O646   1.262       .  A
N644        O648   1.262       .  A
N644        O647   1.262       .  A
C649        C650   1.410       .  A
C649        C654   1.401       .  A
C649        H656   1.083       .  S
C650        C651   1.419       .  A
C651        C652   1.398       .  A
C651        N658   1.431       .  S
C652        C653   1.396       .  A
C652        H657   1.084       .  S
C653        C654   1.405       .  A
C654        N655   1.432       .  S
N655        O659   1.262       .  A
N655        O660   1.262       .  A
N658        O662   1.262       .  A
N658        O661   1.262       .  A
C663        C664   1.404       .  A
C663        C668   1.405       .  A
C663        H670   1.083       .  S
C664        C665   1.414       .  A
C665        C666   1.398       .  A
C665        N672   1.430       .  S
C666        C667   1.403       .  A
C666        H671   1.084       .  S
C667        C668   1.417       .  A
C668        N669   1.435       .  S
N669        O673   1.263       .  A
N669        O674   1.262       .  A
N672        O676   1.262       .  A
N672        O675   1.262       .  A
C677        C678   1.403       .  A
C677        C682   1.399       .  A
C677        H684   1.084       .  S
C678        C679   1.409       .  A
C679        C680   1.401       .  A
C679        N686   1.429       .  S
C680        C681   1.408       .  A
C680        H685   1.083       .  S
C681        C682   1.415       .  A
C682        N683   1.430       .  S
N683        O687   1.262       .  A
N683        O688   1.262       .  A
N686        O690   1.262       .  A
N686        O689   1.262       .  A
C691        C692   1.402       .  A
C691        C696   1.403       .  A
C691        H698   1.083       .  S
C692        C693   1.411       .  A
C693        C694   1.399       .  A
C693        N700   1.430       .  S
C694        C695   1.406       .  A
C694        H699   1.083       .  S
C695        C696   1.417       .  A
C696        N697   1.433       .  S
N697        O701   1.262       .  A
N697        O702   1.262       .  A
N700        O704   1.262       .  A
N700        O703   1.262       .  A
C705        C706   1.407       .  A
C705        C710   1.403       .  A
C705        H712   1.084       .  S
C706        C707   1.416       .  A
C707        C708   1.401       .  A
C707        N714   1.437       .  S
C708        C709   1.405       .  A
C708        H713   1.083       .  S
C709        C710   1.411       .  A
C710        N711   1.429       .  S
N711        O715   1.262       .  A
N711        O716   1.262       .  A
N714        O718   1.263       .  A
N714        O717   1.263       .  A
C719        C720   1.405   1_655  A
C719       C1484   1.400       .  A
C719       H1486   1.083       .  S
C720        C721   1.411       .  A
C721        C722   1.399       .  A
C721        N728   1.432       .  S
C722        C723   1.405       .  A
C722        H727   1.083       .  S
C723       C1484   1.412   1_455  A
C724       C1479   1.400       .  A
C724       C1483   1.412       .  A
C724        N725   1.430       .  S
N725        O729   1.262       .  A
N725        O730   1.262       .  A
H726       C1479   1.083       .  S
N728        O732   1.261       .  A
N728        O731   1.262       .  A
C733        C734   1.404       .  A
C733        C738   1.399       .  A
C733        H740   1.084       .  S
C734        C735   1.411       .  A
C735        C736   1.401       .  A
C735        N742   1.431       .  S
C736        C737   1.407       .  A
C736       H1501   1.083       .  S
C737        C765   1.485       .  S
C737        C738   1.414       .  A
C738        N739   1.432       .  S
N739        O743   1.262       .  A
N739        O744   1.262       .  A
H741       C1496   1.083   1_455  S
N742        O746   1.262       .  A
N742        O745   1.262       .  A
C747        C748   1.403       .  A
C747        C752   1.398       .  A
C747        H754   1.084       .  S
C748        C749   1.412       .  A
C749        C750   1.402       .  A
C749        N756   1.432       .  S
C750        C751   1.402       .  A
C750        H755   1.084       .  S
C751        C752   1.410       .  A
C752        N753   1.431       .  S
N753        O757   1.262       .  A
N753        O758   1.262       .  A
N756        O760   1.263       .  A
N756        O759   1.262       .  A
C761        N762   1.361       .  A
C761        N766   1.357       .  A
C761       C1480   1.481       .  S
N762        C763   1.360       .  A
C763        N764   1.357       .  A
C763       C1508   1.474       .  S
N764        C765   1.356       .  A
C765        N766   1.357       .  A
C767        N768   1.357       .  A
C767        N772   1.358       .  A
C767       C1455   1.486       .  S
N768        C769   1.356       .  A
C769        N770   1.358       .  A
C769       C1511   1.473       .  S
N770        C771   1.358       .  A
C771        N772   1.360       .  A
C771       C1466   1.486       .  S
O773        C776   1.268       .  A
O773       Cd778   2.465       .  S
C774       C1438   1.480       .  S
C774        O783   1.265       .  A
C774        O779   1.268       .  A
O775        C781   1.269       .  A
O775       Cd778   2.491       .  S
C776       C1494   1.479       .  S
C776        O784   1.265       .  A
C777       C1469   1.485       .  S
C777        O782   1.270       .  A
C777        O780   1.265       .  A
Cd778       O785   2.433       .  S
Cd778       O784   2.426       .  S
Cd778       O783   2.438       .  S
Cd778       O779   2.478       .  S
Cd778       O782   2.488       .  S
Cd778       O780   2.420       .  S
C781       C1424   1.484       .  S
C781        O785   1.263       .  A
C786        N787   1.358       .  A
C786        N791   1.357       .  A
C786       C1382   1.494       .  S
N787        C788   1.357       .  A
C788        N789   1.358       .  A
C788       C1410   1.487       .  S
N789        C790   1.357       .  A
C790        N791   1.360       .  A
C790       C1396   1.488       .  S
C792        N793   1.358       .  A
C792        N797   1.359       .  A
C792       C1354   1.487       .  S
N793        C794   1.355       .  A
C794        N795   1.353       .  A
C794       C1413   1.462       .  S
N795        C796   1.355       .  A
C796        N797   1.361       .  A
O798        C801   1.271       .  A
O798       Cd803   2.477       .  S
C799       C1343   1.483       .  S
C799        O808   1.264       .  A
C799        O804   1.270       .  A
O800        C806   1.270       .  A
O800       Cd803   2.470       .  S
C801       C1399   1.479       .  S
C801        O809   1.265       .  A
C802       C1371   1.481       .  S
C802        O807   1.272       .  A
C802        O805   1.264       .  A
Cd803       O810   2.431       .  S
Cd803       O809   2.404       .  S
Cd803       O808   2.435       .  S
Cd803       O804   2.464       .  S
Cd803       O807   2.470       .  S
Cd803       O805   2.404       .  S
C806       C1326   1.479       .  S
C806        O810   1.264       .  A
C811        N812   1.357       .  A
C811        N816   1.358       .  A
C811       C1441   1.488       .  S
N812        C813   1.356       .  A
C813        N814   1.359       .  A
C813       C1312   1.475       .  S
N814        C815   1.359       .  A
C815        N816   1.360       .  A
C815       C1298   1.493       .  S
C817        N818   1.358       .  A
C817        N822   1.357       .  A
C817       C1270   1.487       .  S
N818        C819   1.358       .  A
C819        N820   1.357       .  A
C819       C1315   1.471       .  S
N820        C821   1.358       .  A
C821        N822   1.358       .  A
C821       C1287   1.482       .  S
O823        C826   1.268       .  A
C824       C1357   1.483       .  S
C824        O833   1.265       .  A
O825        C831   1.270       .  A
O825       Cd828   2.491       .  S
C826       C1284   1.482       .  S
C826        O834   1.265       .  A
C827       C1256   1.488       .  S
C827        O830   1.265       .  A
Cd828       O835   2.425       .  S
Cd828       O833   2.433       .  S
Cd828       O832   2.497       .  S
C831       C1301   1.487       .  S
C831        O835   1.264       .  A
C836        N837   1.354       .  A
C836        N841   1.359       .  A
C836       C1214   1.483       .  S
N837        C838   1.354       .  A
C838        N839   1.358       .  A
C838       C1231   1.484       .  S
N839        C840   1.361       .  A
C840        N841   1.361       .  A
C840       C1245   1.477       .  S
C842        N843   1.358       .  A
C842        N847   1.355       .  A
C842       C1186   1.489       .  S
N843        C844   1.357       .  A
C844        N845   1.360       .  A
C844       C1242   1.472       .  S
N845        C846   1.360       .  A
C846        N847   1.358       .  A
O848        C851   1.267       .  A
O848       Cd853   2.484       .  S
C849       C1228   1.479       .  S
C849        O858   1.265       .  A
C849        O854   1.268       .  A
O850        C856   1.268       .  A
O850       Cd853   2.481       .  S
C851       C1172   1.483       .  S
C851        O859   1.264       .  A
C852       C1273   1.482       .  S
C852        O857   1.266       .  A
C852        O855   1.264       .  A
Cd853       O860   2.433       .  S
Cd853       O859   2.436       .  S
Cd853       O858   2.415       .  S
Cd853       O854   2.480       .  S
Cd853       O857   2.480       .  S
Cd853       O855   2.438       .  S
C856       C1200   1.485       .  S
C856        O860   1.265       .  A
C861        N862   1.358       .  A
C861        N866   1.354       .  A
C861       C1130   1.478       .  S
N862        C863   1.359       .  A
C863        N864   1.359       .  A
C863       C1158   1.479       .  S
N864        C865   1.357       .  A
C865        N866   1.357       .  A
C865       C1144   1.489       .  S
C867        N868   1.353       .  A
C867        N872   1.357       .  A
C867       C1329   1.487       .  S
N868        C869   1.358       .  A
C869        N870   1.359       .  A
C869       C1119   1.491       .  S
N870        C871   1.360       .  A
C871        N872   1.358       .  A
C871       C1161   1.468       .  S
O873       Cd878   2.464   1_546  S
C874       C1147   1.479       .  S
C874        O883   1.265       .  A
C874        O879   1.268   1_565  A
C876       C1483   1.482       .  S
C876        O884   1.265       .  A
C877       C1116   1.481       .  S
C877        O882   1.269   1_545  A
C877        O880   1.263       .  A
Cd878       O885   2.445   1_554  S
Cd878       O883   2.419       .  S
Cd878       O879   2.460   1_565  S
C881       C1189   1.481       .  S
C881        O885   1.264       .  A
C886        N887   1.355       .  A
C886        N891   1.360       .  A
C886       C1340   1.481       .  S
N887        C888   1.356       .  A
C888        N889   1.356       .  A
C888       C1088   1.478       .  S
N889        C890   1.358       .  A
C890        N891   1.360       .  A
C890       C1102   1.473       .  S
C892        N893   1.356       .  A
C892        N897   1.355       .  A
C892       C1060   1.484       .  S
N893        C894   1.356       .  A
C894        N895   1.360       .  A
C894       C1105   1.473       .  S
N895        C896   1.360       .  A
C896        N897   1.360       .  A
C896       C1077   1.493       .  S
O898        C901   1.269       .  A
O898       Cd903   2.481       .  S
C899       C1217   1.481       .  S
C899        O908   1.264       .  A
C899        O904   1.269       .  A
O900        C906   1.270       .  A
O900       Cd903   2.482       .  S
C901       C1091   1.482       .  S
C901        O909   1.266       .  A
C902       C1452   1.480       .  S
C902        O907   1.268       .  A
C902        O905   1.265       .  A
Cd903       O910   2.412       .  S
Cd903       O909   2.408       .  S
Cd903       O908   2.425   1_554  S
Cd903       O904   2.471   1_554  S
Cd903       O907   2.461   1_554  S
Cd903       O905   2.446   1_554  S
C906       C1074   1.485       .  S
C906        O910   1.263       .  A
C911        N912   1.357       .  A
C911        N916   1.361       .  A
C911       C1259   1.478       .  S
N912        C913   1.360       .  A
C913        N914   1.358       .  A
N914        C915   1.359       .  A
C915        N916   1.360       .  A
C915       C1049   1.482       .  S
C917        N918   1.359       .  A
C917        N922   1.357       .  A
C917       C1007   1.485       .  S
N918        C919   1.359       .  A
C919        N920   1.359       .  A
C919       C1046   1.473       .  S
N920        C921   1.359       .  A
C921        N922   1.358       .  A
C921       C1018   1.493       .  S
O923        C926   1.269       .  A
O923       Cd928   2.471       .  S
C924       C1032   1.488       .  S
C924        O933   1.265       .  A
C924        O929   1.269       .  A
O925        C931   1.270       .  A
O925       Cd928   2.482       .  S
C926       C1133   1.483       .  S
C926        O934   1.263       .  A
C927       C1063   1.482       .  S
C927        O932   1.268       .  A
C927        O930   1.264       .  A
Cd928       O935   2.423       .  S
Cd928       O934   2.428       .  S
Cd928       O933   2.437       .  S
Cd928       O929   2.483       .  S
Cd928       O932   2.464       .  S
Cd928       O930   2.447       .  S
C931       C1021   1.485       .  S
C931        O935   1.264       .  A
C936        N937   1.357       .  A
C936        N941   1.356       .  A
C936       C1175   1.484       .  S
N937        C938   1.360       .  A
C938        N939   1.361       .  A
C938        C979   1.493       .  S
N939        C940   1.361       .  A
C940        N941   1.356       .  A
C940        C990   1.492       .  S
C942        N943   1.357       .  A
C942        N947   1.359       .  A
C942       C1427   1.485       .  S
N943        C944   1.358       .  A
C944        N945   1.358       .  A
C944        C965   1.482       .  S
N945        C946   1.358       .  A
C946        N947   1.357       .  A
C946        C993   1.466       .  S
O948        C951   1.269   1_545  A
O948       Cd953   2.481   1_545  S
C949       C1385   1.480       .  S
C949        O958   1.264       .  A
C949        O954   1.267       .  A
O950        C956   1.269   1_565  A
O950       Cd953   2.481       .  S
C951        C976   1.487       .  S
C951        O959   1.264       .  A
C952       C1004   1.484       .  S
C952        O957   1.268       .  A
C952        O955   1.263       .  A
Cd953       O960   2.424   1_565  S
Cd953       O959   2.433       .  S
Cd953       O958   2.445   1_565  S
Cd953       O954   2.483   1_565  S
Cd953       O957   2.493       .  S
Cd953       O955   2.430       .  S
C956        C962   1.485       .  S
C956        O960   1.266       .  A
C961        C962   1.405       .  A
C961        C966   1.400       .  A
C961        H968   1.084       .  S
C962        C963   1.412   1_545  A
C963        C964   1.403   1_565  A
C963        N970   1.429       .  S
C964        C965   1.406       .  A
C964        H969   1.084   1_545  S
C965        C966   1.414       .  A
C966        N967   1.437       .  S
N967        O971   1.263       .  A
N967        O972   1.263       .  A
N970        O974   1.262       .  A
N970        O973   1.262       .  A
C975        C976   1.404   1_545  A
C975        C980   1.403   1_545  A
C975        H982   1.084       .  S
C976        C977   1.414       .  A
C977        C978   1.399       .  A
C977        N984   1.430       .  S
C978        C979   1.407       .  A
C978        H983   1.083       .  S
C979        C980   1.417       .  A
C980        N981   1.429   1_565  S
N981        O985   1.262       .  A
N981        O986   1.262       .  A
N984        O988   1.262       .  A
N984        O987   1.262       .  A
C989        C990   1.409   1_545  A
C989        H996   1.082       .  S
C991        C992   1.400   1_455  A
C991        N998   1.429       .  S
C992        C993   1.396   1_565  A
C992        H997   1.084       .  S
C993        C994   1.405       .  A
C994        N995   1.430       .  S
N995       O1000   1.262       .  A
N998       O1002   1.262       .  A
C1003      C1004   1.406       .  A
C1003      C1008   1.399       .  A
C1003      H1010   1.083       .  S
C1004      C1005   1.411       .  A
C1005      C1006   1.402       .  A
C1005      N1012   1.429       .  S
C1006      C1007   1.408       .  A
C1006      H1011   1.083       .  S
C1007      C1008   1.411       .  A
C1008      N1009   1.429       .  S
N1009      O1013   1.262       .  A
N1009      O1014   1.262       .  A
N1012      O1016   1.262       .  A
N1012      O1015   1.262       .  A
C1017      C1018   1.407       .  A
C1017      C1022   1.397       .  A
C1017      H1024   1.083       .  S
C1018      C1019   1.417       .  A
C1019      C1020   1.404       .  A
C1019      N1026   1.429       .  S
C1020      C1021   1.405       .  A
C1020      H1025   1.083       .  S
C1021      C1022   1.413       .  A
C1022      N1023   1.430       .  S
N1023      O1027   1.262       .  A
N1023      O1028   1.262       .  A
N1026      O1030   1.262       .  A
N1026      O1029   1.262       .  A
C1031      C1032   1.404       .  A
C1031      C1036   1.404       .  A
C1031      H1038   1.083       .  S
C1032      C1033   1.414       .  A
C1033      C1034   1.399       .  A
C1033      N1040   1.430       .  S
C1034      C1035   1.407       .  A
C1034      H1039   1.083       .  S
C1035      C1036   1.419       .  A
N1037      O1041   1.262       .  A
N1037      O1042   1.262       .  A
N1040      O1044   1.262       .  A
N1040      O1043   1.262       .  A
C1045      C1046   1.401       .  A
C1045      C1050   1.402       .  A
C1045      H1052   1.084       .  S
C1046      C1047   1.410       .  A
C1047      C1048   1.403       .  A
C1047      N1054   1.433       .  S
C1048      C1049   1.405       .  A
C1048      H1053   1.084       .  S
C1049      C1050   1.413       .  A
C1050      N1051   1.430       .  S
N1051      O1055   1.261       .  A
N1051      O1056   1.262       .  A
N1054      O1058   1.262       .  A
N1054      O1057   1.262       .  A
C1059      C1060   1.405       .  A
C1059      C1064   1.399       .  A
C1059      H1066   1.084       .  S
C1060      C1061   1.415       .  A
C1061      C1062   1.401       .  A
C1061      N1068   1.430       .  S
C1062      C1063   1.404       .  A
C1062      H1067   1.084       .  S
C1063      C1064   1.413       .  A
C1064      N1065   1.429       .  S
N1065      O1069   1.262       .  A
N1065      O1070   1.262       .  A
N1068      O1072   1.262       .  A
N1068      O1071   1.262       .  A
C1073      C1074   1.405       .  A
C1073      C1078   1.404       .  A
C1073      H1080   1.084       .  S
C1074      C1075   1.413       .  A
C1075      C1076   1.395       .  A
C1075      N1082   1.430       .  S
C1076      C1077   1.407       .  A
C1076      H1081   1.083       .  S
C1077      C1078   1.418       .  A
C1078      N1079   1.429       .  S
N1079      O1083   1.262       .  A
N1079      O1084   1.262       .  A
N1082      O1086   1.262       .  A
N1082      O1085   1.262       .  A
C1087      C1088   1.405       .  A
C1087      C1092   1.402       .  A
C1087      H1094   1.084       .  S
C1088      C1089   1.413       .  A
C1089      C1090   1.397       .  A
C1089      N1096   1.435       .  S
C1090      C1091   1.404       .  A
C1090      H1095   1.083       .  S
C1091      C1092   1.412       .  A
C1092      N1093   1.429       .  S
N1093      O1097   1.262       .  A
N1093      O1098   1.262       .  A
N1096      O1100   1.262       .  A
N1096      O1099   1.263       .  A
C1101      C1106   1.404       .  A
C1101      H1108   1.084       .  S
C1102      C1103   1.410       .  A
C1103      N1110   1.432       .  S
C1104      C1105   1.403       .  A
C1104      H1109   1.084       .  S
C1105      C1106   1.413       .  A
C1106      N1107   1.434       .  S
N1107      O1111   1.262       .  A
N1107      O1112   1.262       .  A
N1110      O1114   1.262       .  A
N1110      O1113   1.262       .  A
C1115      C1116   1.405   1_565  A
C1115      C1120   1.406   1_565  A
C1115      H1122   1.081       .  S
C1116      C1117   1.411       .  A
C1117      C1118   1.392       .  A
C1117      N1124   1.430       .  S
C1118      C1119   1.407       .  A
C1118      H1123   1.079       .  S
C1119      C1120   1.417       .  A
C1120      N1121   1.430   1_545  S
N1121      O1125   1.262       .  A
N1121      O1126   1.262       .  A
N1124      O1128   1.262       .  A
N1124      O1127   1.262       .  A
C1129      C1130   1.401       .  A
C1129      C1134   1.398       .  A
C1129      H1136   1.084       .  S
C1130      C1131   1.414       .  A
C1131      C1132   1.401       .  A
C1131      N1138   1.433       .  S
C1132      C1133   1.404       .  A
C1132      H1137   1.083       .  S
C1133      C1134   1.415       .  A
C1134      N1135   1.429       .  S
N1135      O1139   1.262       .  A
N1135      O1140   1.262       .  A
N1138      O1142   1.262       .  A
N1138      O1141   1.262       .  A
C1143      C1144   1.408       .  A
C1143      C1148   1.395       .  A
C1143      H1150   1.079       .  S
C1144      C1145   1.419   1_565  A
C1145      C1146   1.402       .  A
C1145      N1152   1.432       .  S
C1146      C1147   1.403   1_545  A
C1146      H1151   1.080       .  S
C1147      C1148   1.411       .  A
C1148      N1149   1.432       .  S
N1149      O1153   1.262       .  A
N1149      O1154   1.262       .  A
N1152      O1156   1.262       .  A
N1152      O1155   1.262       .  A
C1157      C1158   1.406       .  A
C1157      C1162   1.399       .  A
C1157      H1164   1.084       .  S
C1158      C1159   1.417   1_565  A
C1159      C1160   1.402       .  A
C1159      N1166   1.436       .  S
C1160      C1161   1.400       .  A
C1160      H1165   1.084       .  S
C1161      C1162   1.405   1_545  A
C1162      N1163   1.430       .  S
N1163      O1167   1.262       .  A
N1163      O1168   1.262       .  A
N1166      O1170   1.262       .  A
N1166      O1169   1.263       .  A
C1171      C1172   1.406       .  A
C1171      C1176   1.405       .  A
C1171      H1178   1.083       .  S
C1172      C1173   1.412       .  A
C1173      C1174   1.396       .  A
C1173      N1180   1.429       .  S
C1174      C1175   1.404       .  A
C1174      H1179   1.080       .  S
C1175      C1176   1.414       .  A
C1176      N1177   1.432       .  S
N1177      O1181   1.262       .  A
N1177      O1182   1.262       .  A
N1180      O1184   1.262       .  A
N1180      O1183   1.262       .  A
C1185      C1186   1.406       .  A
C1185      C1190   1.399       .  A
C1185      H1192   1.084       .  S
C1186      C1187   1.419       .  A
C1187      C1188   1.401   1_655  A
C1188      C1189   1.401   1_455  A
C1189      C1190   1.411       .  A
C1190      N1191   1.429       .  S
N1191      O1195   1.262       .  A
N1191      O1196   1.262       .  A
N1194      O1198   1.262       .  A
N1194      O1197   1.262       .  A
C1199      C1200   1.405       .  A
C1199      C1204   1.406       .  A
C1199      H1206   1.081       .  S
C1200      C1201   1.411       .  A
C1201      C1202   1.396       .  A
C1201      N1208   1.430       .  S
C1202      C1203   1.408       .  A
C1202      H1207   1.078       .  S
C1203      C1204   1.417       .  A
N1205      O1209   1.262       .  A
N1205      O1210   1.262       .  A
N1208      O1212   1.262       .  A
N1208      O1211   1.262       .  A
C1213      C1214   1.407       .  A
C1213      C1218   1.398       .  A
C1213      H1220   1.081       .  S
C1214      C1215   1.411       .  A
C1215      C1216   1.401       .  A
C1215      N1222   1.430       .  S
C1216      C1217   1.407       .  A
C1216      H1221   1.083       .  S
C1217      C1218   1.409       .  A
C1218      N1219   1.429       .  S
N1219      O1223   1.262       .  A
N1219      O1224   1.262       .  A
N1222      O1226   1.262       .  A
N1222      O1225   1.262       .  A
C1227      C1228   1.401       .  A
C1227      C1232   1.395       .  A
C1227      H1234   1.084       .  S
C1228      C1229   1.412       .  A
C1229      C1230   1.404       .  A
C1229      N1236   1.431       .  S
C1230      C1231   1.407       .  A
C1230      H1235   1.084       .  S
C1231      C1232   1.416       .  A
C1232      N1233   1.433       .  S
N1233      O1237   1.262       .  A
N1233      O1238   1.262       .  A
N1236      O1240   1.262       .  A
N1236      O1239   1.262       .  A
C1241      C1242   1.402       .  A
C1241      C1246   1.399       .  A
C1241      H1248   1.084       .  S
C1242      C1243   1.409       .  A
C1243      C1244   1.403       .  A
C1243      N1250   1.431       .  S
C1244      C1245   1.405       .  A
C1244      H1249   1.084       .  S
C1245      C1246   1.411       .  A
C1246      N1247   1.430       .  S
N1247      O1251   1.262       .  A
N1247      O1252   1.262       .  A
N1250      O1254   1.262       .  A
N1250      O1253   1.262       .  A
C1255      C1256   1.407       .  A
C1255      C1260   1.401       .  A
C1256      C1257   1.413       .  A
C1257      C1258   1.404       .  A
C1257      N1264   1.429       .  S
C1258      C1259   1.404       .  A
C1258      H1263   1.084       .  S
C1259      C1260   1.410       .  A
N1261      O1265   1.262       .  A
N1261      O1266   1.262       .  A
N1264      O1268   1.262       .  A
N1264      O1267   1.262       .  A
C1269      C1270   1.408       .  A
C1269      C1274   1.403       .  A
C1269      H1276   1.083       .  S
C1270      C1271   1.413       .  A
C1271      C1272   1.398       .  A
C1271      N1278   1.429       .  S
C1272      C1273   1.404       .  A
C1272      H1277   1.084       .  S
C1273      C1274   1.412       .  A
C1274      N1275   1.431       .  S
N1275      O1279   1.262       .  A
N1275      O1280   1.262       .  A
N1278      O1282   1.262       .  A
N1278      O1281   1.262       .  A
C1283      C1284   1.404       .  A
C1283      C1288   1.397       .  A
C1283      H1290   1.084       .  S
C1284      C1285   1.413       .  A
C1285      C1286   1.402       .  A
C1285      N1292   1.429       .  S
C1286      C1287   1.405       .  A
C1286      H1291   1.083       .  S
C1287      C1288   1.413       .  A
C1288      N1289   1.432       .  S
N1289      O1293   1.262       .  A
N1289      O1294   1.262       .  A
N1292      O1296   1.262       .  A
N1292      O1295   1.262       .  A
C1297      C1298   1.406       .  A
C1297      C1302   1.397       .  A
C1297      H1304   1.083       .  S
C1298      C1299   1.419       .  A
C1299      C1300   1.406       .  A
C1299      N1306   1.432       .  S
C1300      C1301   1.404       .  A
C1300      H1305   1.083       .  S
C1301      C1302   1.413       .  A
C1302      N1303   1.430       .  S
N1303      O1307   1.262       .  A
N1303      O1308   1.262       .  A
N1306      O1310   1.262       .  A
N1306      O1309   1.262       .  A
C1311      C1312   1.404       .  A
C1311      C1316   1.399       .  A
C1311      H1318   1.084       .  S
C1312      C1313   1.413       .  A
C1313      C1314   1.402       .  A
C1313      N1320   1.435       .  S
C1314      C1315   1.402       .  A
C1314      H1319   1.084       .  S
C1315      C1316   1.407       .  A
C1316      N1317   1.429       .  S
N1317      O1321   1.262       .  A
N1317      O1322   1.262       .  A
N1320      O1324   1.262       .  A
N1320      O1323   1.262       .  A
C1325      C1326   1.401       .  A
C1325      C1330   1.401       .  A
C1325      H1332   1.084       .  S
C1326      C1327   1.412       .  A
C1327      C1328   1.399       .  A
C1327      N1334   1.429       .  S
C1328      C1329   1.405       .  A
C1328      H1333   1.084       .  S
C1329      C1330   1.419       .  A
C1330      N1331   1.433       .  S
N1331      O1335   1.262       .  A
N1331      O1336   1.262       .  A
N1334      O1338   1.262       .  A
N1334      O1337   1.262       .  A
C1339      C1340   1.402       .  A
C1339      C1344   1.400       .  A
C1339      H1346   1.084       .  S
C1340      C1341   1.414       .  A
C1341      C1342   1.400       .  A
C1341      N1348   1.431       .  S
C1342      C1343   1.403       .  A
C1342      H1347   1.084       .  S
C1343      C1344   1.415       .  A
C1344      N1345   1.430       .  S
N1345      O1349   1.262       .  A
N1345      O1350   1.262       .  A
N1348      O1352   1.262       .  A
N1348      O1351   1.262       .  A
C1353      C1354   1.407       .  A
C1353      C1358   1.402       .  A
C1354      C1355   1.414       .  A
C1355      C1356   1.399       .  A
C1355      N1362   1.431       .  S
C1356      C1357   1.404       .  A
C1356      H1361   1.084       .  S
C1357      C1358   1.411       .  A
N1359      O1363   1.262       .  A
N1359      O1364   1.262       .  A
N1362      O1366   1.262       .  A
N1362      O1365   1.262       .  A
C1367      C1368   1.405       .  A
C1367      C1372   1.396       .  A
C1368      C1369   1.419       .  A
C1369      C1370   1.401       .  A
C1369      N1376   1.430       .  S
C1370      C1371   1.402       .  A
C1370      H1375   1.084       .  S
C1371      C1372   1.413       .  A
C1372      N1373   1.430       .  S
N1373      O1377   1.262       .  A
N1373      O1378   1.262       .  A
N1376      O1380   1.262       .  A
C1381      C1382   1.409       .  A
C1381      C1386   1.399       .  A
C1381      H1388   1.073       .  S
C1382      C1383   1.418       .  A
C1383      C1384   1.404       .  A
C1383      N1390   1.429       .  S
C1384      C1385   1.403       .  A
C1384      H1389   1.078       .  S
C1385      C1386   1.409       .  A
C1386      N1387   1.430       .  S
N1387      O1391   1.262       .  A
N1387      O1392   1.262       .  A
N1390      O1394   1.262       .  A
N1390      O1393   1.262       .  A
C1395      C1396   1.404       .  A
C1395      C1400   1.397       .  A
C1395      H1402   1.083       .  S
C1396      C1397   1.418       .  A
C1397      C1398   1.403       .  A
C1397      N1404   1.430       .  S
C1398      C1399   1.402       .  A
C1398      H1403   1.084       .  S
C1399      C1400   1.412       .  A
C1400      N1401   1.432       .  S
N1401      O1405   1.262       .  A
N1401      O1406   1.262       .  A
N1404      O1408   1.262       .  A
N1404      O1407   1.262       .  A
C1409      C1410   1.410       .  A
C1409      C1414   1.401       .  A
C1409      H1416   1.083       .  S
C1410      C1411   1.419       .  A
C1411      C1412   1.398       .  A
C1411      N1418   1.431       .  S
C1412      C1413   1.396       .  A
C1412      H1417   1.084       .  S
C1413      C1414   1.405       .  A
C1414      N1415   1.432       .  S
N1415      O1419   1.262       .  A
N1415      O1420   1.262       .  A
N1418      O1422   1.262       .  A
N1418      O1421   1.262       .  A
C1423      C1424   1.404       .  A
C1423      C1428   1.405       .  A
C1423      H1430   1.083       .  S
C1424      C1425   1.414       .  A
C1425      C1426   1.398       .  A
C1425      N1432   1.430       .  S
C1426      C1427   1.403       .  A
C1426      H1431   1.084       .  S
C1427      C1428   1.417       .  A
C1428      N1429   1.435       .  S
N1429      O1433   1.263       .  A
N1429      O1434   1.262       .  A
N1432      O1436   1.262       .  A
N1432      O1435   1.262       .  A
C1437      C1438   1.403       .  A
C1437      C1442   1.399       .  A
C1437      H1444   1.084       .  S
C1438      C1439   1.409       .  A
C1439      C1440   1.401       .  A
C1439      N1446   1.429       .  S
C1440      C1441   1.408       .  A
C1440      H1445   1.083       .  S
C1441      C1442   1.415       .  A
C1442      N1443   1.430       .  S
N1443      O1447   1.262       .  A
N1443      O1448   1.262       .  A
N1446      O1450   1.262       .  A
N1446      O1449   1.262       .  A
C1451      C1452   1.402       .  A
C1451      C1456   1.403       .  A
C1451      H1458   1.083       .  S
C1452      C1453   1.411       .  A
C1453      C1454   1.399       .  A
C1453      N1460   1.430       .  S
C1454      C1455   1.406       .  A
C1454      H1459   1.083       .  S
C1455      C1456   1.417       .  A
C1456      N1457   1.433       .  S
N1457      O1461   1.262       .  A
N1457      O1462   1.262       .  A
N1460      O1464   1.262       .  A
N1460      O1463   1.262       .  A
C1465      C1466   1.407       .  A
C1465      C1470   1.403       .  A
C1465      H1472   1.084       .  S
C1466      C1467   1.416       .  A
C1467      C1468   1.401       .  A
C1467      N1474   1.437       .  S
C1468      C1469   1.405       .  A
C1468      H1473   1.083       .  S
C1469      C1470   1.411       .  A
C1470      N1471   1.429       .  S
N1471      O1475   1.262       .  A
N1471      O1476   1.262       .  A
N1474      O1478   1.263       .  A
N1474      O1477   1.263       .  A
C1479      C1480   1.405       .  A
C1480      C1481   1.411       .  A
C1481      C1482   1.399       .  A
C1481      N1488   1.432       .  S
C1482      C1483   1.405       .  A
C1482      H1487   1.083       .  S
C1484      N1485   1.430       .  S
N1485      O1489   1.262       .  A
N1485      O1490   1.262       .  A
N1488      O1492   1.261       .  A
N1488      O1491   1.262       .  A
C1493      C1494   1.404       .  A
C1493      C1498   1.399       .  A
C1493      H1500   1.084       .  S
C1494      C1495   1.411       .  A
C1495      C1496   1.401       .  A
C1495      N1502   1.431       .  S
C1496      C1497   1.407       .  A
C1497      C1498   1.414       .  A
C1498      N1499   1.432       .  S
N1499      O1503   1.262       .  A
N1499      O1504   1.262       .  A
N1502      O1506   1.262       .  A
N1502      O1505   1.262       .  A
C1507      C1508   1.403       .  A
C1507      C1512   1.398       .  A
C1507      H1514   1.084       .  S
C1508      C1509   1.412       .  A
C1509      C1510   1.402       .  A
C1509      N1516   1.432       .  S
C1510      C1511   1.402       .  A
C1510      H1515   1.084       .  S
C1511      C1512   1.410       .  A
C1512      N1513   1.431       .  S
N1513      O1517   1.262       .  A
N1513      O1518   1.262       .  A
N1516      O1520   1.263       .  A
N1516      O1519   1.262       .  A
