geometry optimzed in LAMMPS
_audit_creation_date              2020-12-01 
_audit_creation_method            'lammps2cif' 
_symmetry_space_group_name_H-M    'P1' 
_symmetry_Int_Tables_number       1 
_symmetry_cell_setting            triclinic 
loop_ 
_symmetry_equiv_pos_as_xyz 
  x,y,z 
_cell_length_a                    65.74318746 
_cell_length_b                    64.8742241054082 
_cell_length_c                    35.65459977087155 
_cell_angle_alpha                 89.9617381640994 
_cell_angle_beta                  89.97830319165915 
_cell_angle_gamma                 124.13589339177905 
loop_ 
_atom_site_label 
_atom_site_type_symbol 
_atom_site_fract_x 
_atom_site_fract_y 
_atom_site_fract_z 
_atom_site_charge 
C1          C  0.46470266  0.93044181  0.33415482     0.80100
N2          N  0.46273305  0.91783770  0.03292998    -0.78200
C3          C  0.44900322  0.89258503  0.03282779     0.82500
N4          N  0.44070472  0.88015644  0.99993181    -0.78200
C5          C  0.44459869  0.89231217  0.30109826     0.82600
N6          N  0.45759660  0.91759103  0.30114873    -0.79900
C7          C  0.49785740  0.52263608  0.33251853     0.80100
N8          N  0.49226654  0.52916263  0.29979035    -0.78200
C9          C  0.48239577  0.54271557  0.29991494     0.82500
N10         N  0.47779378  0.54960216  0.33291695    -0.78200
C11         C  0.48481849  0.54442114  0.03119893     0.82600
N12         N  0.49463991  0.53071603  0.03121297    -0.79900
C13         C  0.42220912  0.82064414  0.14814285     0.02200
C14         C  0.41836154  0.81970674  0.18728149     0.02100
C15         C  0.40941141  0.79718807  0.20638434    -0.18400
C16         C  0.40296567  0.77546274  0.18717102     0.02200
C17         C  0.40704525  0.77651281  0.14820037     0.02100
C18         C  0.41683334  0.79913307  0.12919114    -0.18400
H19         H  0.41924086  0.79972775  0.09902204     0.04200
H20         H  0.40697256  0.79643550  0.23655117     0.04200
O21         O  0.31437177  0.63870597  0.05030474    -0.85500
O22         O  0.35350808  0.68599053  0.03041618    -0.82500
C23         C  0.37107813  0.69109368  0.05172359     0.98000
O24         O  0.38174266  0.68002869  0.04780395    -0.82600
O25         O  0.38634971  0.64141025  0.03102528    -0.85200
C26         C  0.37209003  0.62331868  0.05241330     1.02500
O27         O  0.34909577  0.61135532  0.04866516    -0.78000
O28         O  0.30416270  0.60225216  0.03025877    -0.78200
C29         C  0.30132537  0.61526125  0.05319207     1.02500
O30         O  0.30210611  0.62793646  0.30555732    -0.85500
O31         O  0.34412511  0.67311015  0.28630776    -0.82500
C32         C  0.36678616  0.68955682  0.28224888     0.98000
O33         O  0.38233301  0.69035633  0.30418631    -0.82600
O34         O  0.38421873  0.64991566  0.28783166    -0.85200
C35         C  0.37661396  0.62732663  0.28412643     1.02500
O36         O  0.35966858  0.61097007  0.30504337    -0.78000
O37         O  0.31732012  0.60755900  0.28535287    -0.78100
C38         C  0.30147182  0.61262960  0.28286755     1.02400
Cr39       Cr  0.32994229  0.65575078  0.33462378     1.93700
Cr40       Cr  0.38069097  0.66377972  0.33532223     1.93200
Cr41       Cr  0.33351487  0.61072750  0.33390688     1.39100
O42         O  0.34816193  0.64345988  0.33471611    -1.23200
C43         C  0.44500463  0.57360545  0.18541361     0.02200
C44         C  0.44448329  0.57311255  0.14581805     0.02100
C45         C  0.43081176  0.58046869  0.12694049    -0.18400
C46         C  0.41789051  0.58844567  0.14659825     0.02200
C47         C  0.41886980  0.58943425  0.18612441     0.02100
C48         C  0.43201317  0.58154926  0.20500802    -0.18400
H49         H  0.43249176  0.58200217  0.23542661     0.04200
H50         H  0.43047928  0.58030118  0.09651785     0.04200
C51         C  0.21540023  0.56207121  0.14845552     0.02200
C52         C  0.21540344  0.56092587  0.18790738     0.02100
C53         C  0.19309648  0.54614849  0.20716407    -0.18400
C54         C  0.17065181  0.53239788  0.18792190     0.02200
C55         C  0.17063118  0.53350319  0.14836588     0.02100
C56         C  0.19303253  0.54844350  0.12913463    -0.18400
H57         H  0.19307041  0.54928081  0.09874520     0.04200
H58         H  0.19320487  0.54535012  0.23755372     0.04200
C59         C  0.06118819  0.48075207  0.33410726     0.80100
N60         N  0.07409803  0.48626574  0.03346271    -0.78200
C61         C  0.09761450  0.49266574  0.03385780     0.82500
N62         N  0.10839132  0.49400598  0.33524602    -0.78200
C63         C  0.09697832  0.49063099  0.30195483     0.82600
N64         N  0.07343998  0.48415405  0.30150592    -0.79900
C65         C  0.96434727  0.46238606  0.00201110     0.80100
N66         N  0.95273718  0.46075422  0.30151355    -0.78200
C67         C  0.92985030  0.45622120  0.30166724     0.82500
N68         N  0.91875727  0.45411428  0.33483774    -0.78200
C69         C  0.92965659  0.45527087  0.03419754     0.82600
N70         N  0.95229598  0.45947740  0.03461810    -0.79900
C71         C  0.54564407  0.46926683  0.33620454     0.80100
N72         N  0.55019192  0.46213941  0.30293727    -0.78200
C73         C  0.56088131  0.44929725  0.30246069     0.82500
N74         N  0.56699155  0.44350956  0.33515771    -0.78200
C75         C  0.56239350  0.45043439  0.03370406     0.82600
N76         N  0.55154398  0.46306646  0.03374886    -0.79900
C77         C  0.85736120  0.42395077  0.14782546     0.02200
C78         C  0.85703826  0.42431838  0.18740246     0.02100
C79         C  0.83433036  0.41262095  0.20601347    -0.18400
C80         C  0.81221638  0.40107957  0.18603707     0.02200
C81         C  0.81260727  0.40104031  0.14652263     0.02100
C82         C  0.83516116  0.41225797  0.12789302    -0.18400
H83         H  0.83546833  0.41200858  0.09747386     0.04200
H84         H  0.83386540  0.41260523  0.23642842     0.04200
C85         C  0.59231353  0.41195676  0.18772882     0.02200
C86         C  0.59226451  0.41200552  0.14819068     0.02100
C87         C  0.60318402  0.40180765  0.12862189    -0.18400
C88         C  0.61376636  0.39113820  0.14765658     0.02200
C89         C  0.61289910  0.39018066  0.18726858     0.02100
C90         C  0.60256465  0.40096175  0.20676923    -0.18400
H91         H  0.60277477  0.40107946  0.23718797     0.04200
H92         H  0.60360824  0.40235327  0.09820982     0.04200
O93         O  0.71220535  0.33111549  0.04634808    -0.85500
O94         O  0.66944330  0.28690546  0.02656439    -0.82500
C95         C  0.65374623  0.28447558  0.04977907     0.98000
O96         O  0.64598303  0.29837143  0.04748301    -0.82600
O97         O  0.64509189  0.33931324  0.02869162    -0.85200
C98         C  0.65976616  0.35638074  0.05102949     1.02500
O99         O  0.68252982  0.36589367  0.04833526    -0.78000
O100        O  0.72542189  0.36950292  0.03111625    -0.78200
C101        C  0.72697623  0.35427786  0.05098835     1.02500
O102        O  0.72394000  0.34225178  0.30180283    -0.85500
O103        O  0.67919441  0.29964584  0.28379721    -0.82500
C104        C  0.65626861  0.28417493  0.28149226     0.98000
O105        O  0.64230913  0.28552767  0.30438003    -0.82600
O106        O  0.64565675  0.32847791  0.28566039    -0.85200
C107        C  0.65532529  0.35146683  0.28126520     1.02500
O108        O  0.67269282  0.36722336  0.30220590    -0.78000
O109        O  0.71295364  0.36680269  0.28333593    -0.78100
C110        C  0.72655688  0.35894121  0.28006016     1.02400
Cr111      Cr  0.69506620  0.31655266  0.33171712     1.93700
Cr112      Cr  0.64739884  0.31443019  0.33380320     1.93200
Cr113      Cr  0.69728034  0.36507118  0.33172616     1.39100
O114        O  0.67993689  0.33208743  0.33249909    -1.23200
C115        C  0.60980370  0.19732708  0.18427545     0.02200
C116        C  0.60800986  0.19750450  0.14492132     0.02100
C117        C  0.59540849  0.17493440  0.12519596    -0.18400
C118        C  0.58415238  0.15197353  0.14393981     0.02200
C119        C  0.58681580  0.15182193  0.18320952     0.02100
C120        C  0.59946092  0.17448816  0.20287556    -0.18400
H121        H  0.60073787  0.17432417  0.23319063     0.04200
H122        H  0.59428880  0.17525413  0.09487582     0.04200
C123        C  0.52268537  0.03900730  0.32908237     0.80100
N124        N  0.53010117  0.05203902  0.29629249    -0.78200
C125        C  0.54376853  0.07729185  0.29649660     0.82500
N126        N  0.54982848  0.08965207  0.32951666    -0.78200
C127        C  0.54648610  0.07730970  0.03045003     0.82600
N128        N  0.53331419  0.05201057  0.03018977    -0.79900
C129        C  0.57818137  0.10394748  0.25361489    -0.20400
C130        C  0.55308721  0.09172346  0.26153189    -0.07000
C131        C  0.53846458  0.09668119  0.23957337     0.13900
C132        C  0.54964925  0.11500997  0.21150072    -0.20500
C133        C  0.57511002  0.12858183  0.20546213    -0.07000
C134        C  0.58942702  0.12239939  0.22582151     0.13900
C135        C  0.61668557  0.13582056  0.21920689    -0.23800
H136        H  0.58924560  0.09997341  0.27064928     0.15100
H137        H  0.53881284  0.11997780  0.19608461     0.15200
C138        C  0.51141871  0.08373165  0.24731101    -0.23800
H139        H  0.62485277  0.12817175  0.23695351     0.05400
H140        H  0.62619605  0.15587844  0.22595939     0.08600
H141        H  0.62020018  0.13382555  0.18944604     0.08600
H142        H  0.50861203  0.08775522  0.27641407     0.08600
H143        H  0.50207054  0.06332125  0.24392578     0.08600
H144        H  0.50273603  0.08998333  0.22780193     0.05400
C145        C  0.54078405  0.10378327  0.07267022    -0.20400
C146        C  0.55242488  0.09153205  0.06561190    -0.07000
C147        C  0.57231557  0.09663982  0.08830734     0.13900
C148        C  0.58127128  0.11525782  0.11592104    -0.20500
C149        C  0.57076933  0.12884842  0.12109710    -0.07000
C150        C  0.54960860  0.12228474  0.10033733     0.13900
C151        C  0.53663459  0.13514317  0.10670375    -0.23800
H152        H  0.52545632  0.09969971  0.05517830     0.15100
H153        H  0.59746655  0.12030038  0.13181080     0.15200
C154        C  0.58494217  0.08348123  0.08184877    -0.23800
H155        H  0.51988955  0.12700433  0.08909199     0.05400
H156        H  0.54889396  0.15518104  0.09956956     0.08600
H157        H  0.53097444  0.13318351  0.13651361     0.08600
H158        H  0.59247952  0.08719737  0.05291555     0.08600
H159        H  0.57155549  0.06311686  0.08561758     0.08600
H160        H  0.60033142  0.08980918  0.10181469     0.05400
C161        C  0.61945667  0.24599037  0.25467834    -0.20400
C162        C  0.64514933  0.26327784  0.25375072    -0.07000
C163        C  0.65903359  0.25932469  0.22771259     0.13900
C164        C  0.64696677  0.23781838  0.20514681    -0.20500
C165        C  0.62141984  0.22051301  0.20690135    -0.07000
C166        C  0.60746984  0.22491478  0.23161979     0.13900
C167        C  0.57984708  0.20782219  0.23457258    -0.23800
H168        H  0.60836446  0.24869255  0.27388895     0.15100
H169        H  0.65764225  0.23417074  0.18660414     0.15200
C170        C  0.68646354  0.27730406  0.22337852    -0.23800
H171        H  0.57155817  0.19227648  0.21419413     0.05400
H172        H  0.57170103  0.21860533  0.22921347     0.08600
H173        H  0.57466772  0.19983495  0.26327523     0.08600
H174        H  0.69585939  0.27833667  0.24986019     0.08600
H175        H  0.69097169  0.29603675  0.21577884     0.08600
H176        H  0.69388249  0.27144855  0.20087055     0.05400
C177        C  0.61910705  0.25330559  0.09046648    -0.20400
C178        C  0.64322980  0.26383654  0.07749041    -0.07000
C179        C  0.65612915  0.25323011  0.08922265     0.13900
C180        C  0.64411837  0.23179396  0.11158857    -0.20500
C181        C  0.61990724  0.22098820  0.12340855    -0.07000
C182        C  0.60726990  0.23191249  0.11318585     0.13900
C183        C  0.58117705  0.22067573  0.12557139    -0.23800
H184        H  0.60914054  0.26128396  0.08174707     0.15100
H185        H  0.65358207  0.22314552  0.11963901     0.15200
C186        C  0.68265456  0.26440689  0.07908542    -0.23800
H187        H  0.57389163  0.23139981  0.11484561     0.05400
H188        H  0.58030644  0.22053670  0.15661526     0.08600
H189        H  0.56921682  0.20129966  0.11502073     0.08600
H190        H  0.69396909  0.28433144  0.08728915     0.08600
H191        H  0.68451740  0.26247281  0.04859251     0.08600
H192        H  0.69015027  0.25496800  0.09387048     0.05400
C193        C  0.62383460  0.34996482  0.08568515    -0.20400
C194        C  0.64936570  0.36525493  0.07900148    -0.07000
C195        C  0.66328792  0.38892432  0.09662182     0.13900
C196        C  0.65117514  0.39677892  0.11896501    -0.20500
C197        C  0.62573758  0.38141066  0.12528241    -0.07000
C198        C  0.61190416  0.35780432  0.10818457     0.13900
C199        C  0.58443150  0.34105284  0.11281408    -0.23800
H200        H  0.61289430  0.33179400  0.07259517     0.15100
H201        H  0.66155839  0.41528325  0.13102943     0.15200
C202        C  0.69067573  0.40637899  0.09138265    -0.23800
H203        H  0.57638433  0.32337985  0.09697467     0.05400
H204        H  0.57581045  0.35056990  0.10244036     0.08600
H205        H  0.57984765  0.33628922  0.14275371     0.08600
H206        H  0.69504526  0.41105501  0.06122376     0.08600
H207        H  0.69991778  0.39755582  0.10209211     0.08600
H208        H  0.69832106  0.42409206  0.10695027     0.05400
C209        C  0.61926908  0.34757437  0.25204378    -0.20400
C210        C  0.64490988  0.36011719  0.25378065    -0.07000
C211        C  0.65991164  0.38183002  0.23198394     0.13900
C212        C  0.64889298  0.39099192  0.21026042    -0.20500
C213        C  0.62331586  0.37880255  0.20917722    -0.07000
C214        C  0.60826775  0.35690683  0.23057691     0.13900
C215        C  0.58073102  0.34381320  0.23207406    -0.23800
H216        H  0.60783836  0.33110774  0.26914588     0.15100
H217        H  0.66037696  0.40825715  0.19501856     0.15200
C218        C  0.68747148  0.39522215  0.23096640    -0.23800
H219        H  0.57188562  0.32651700  0.24913229     0.05400
H220        H  0.57282997  0.33865607  0.20354514     0.08600
H221        H  0.57595493  0.35612057  0.24496781     0.08600
H222        H  0.69235933  0.38201091  0.22274259     0.08600
H223        H  0.69544191  0.40331884  0.25882555     0.08600
H224        H  0.69601599  0.41073558  0.21032472     0.05400
C225        C  0.78233878  0.40508191  0.22159661    -0.20400
C226        C  0.78904185  0.38958816  0.20734842    -0.07000
C227        C  0.77466755  0.36395538  0.21578828     0.13900
C228        C  0.75352982  0.35430520  0.23780299    -0.20500
C229        C  0.74671225  0.36976882  0.25225776    -0.07000
C230        C  0.76120395  0.39551330  0.24364398     0.13900
C231        C  0.75536197  0.41326643  0.25899746    -0.23800
H232        H  0.79405635  0.42490808  0.21608303     0.15100
H233        H  0.74265039  0.33464304  0.24476447     0.15200
C234        C  0.78230123  0.34704005  0.20340402    -0.23800
H235        H  0.76928564  0.43280303  0.25047176     0.05400
H236        H  0.75492643  0.41252118  0.29012097     0.08600
H237        H  0.73733309  0.40825833  0.24814821     0.08600
H238        H  0.80081926  0.35394676  0.21467057     0.08600
H239        H  0.78282301  0.34649631  0.17244728     0.08600
H240        H  0.76933340  0.32766435  0.21353436     0.05400
C241        C  0.78252736  0.36662976  0.10522576    -0.20400
C242        C  0.78977625  0.38875471  0.12391908    -0.07000
C243        C  0.77592191  0.39912254  0.11918777     0.13900
C244        C  0.75465301  0.38653278  0.09707316    -0.20500
C245        C  0.74730611  0.36432291  0.07838563    -0.07000
C246        C  0.76148210  0.35423214  0.08254412     0.13900
C247        C  0.75540592  0.33122748  0.06169092    -0.23800
H248        H  0.79371178  0.35924194  0.10795582     0.15100
H249        H  0.74419383  0.39466611  0.09326219     0.15200
C250        C  0.78372102  0.42405470  0.13505097    -0.23800
H251        H  0.76919212  0.32677661  0.06695788     0.05400
H252        H  0.75503288  0.33405997  0.03104160     0.08600
H253        H  0.73728744  0.31498877  0.07095116     0.08600
H254        H  0.80154938  0.43345350  0.14995113     0.08600
H255        H  0.76944092  0.42165372  0.15473095     0.08600
H256        H  0.78580339  0.43655088  0.11188038     0.05400
C257        C  0.55130968  0.41843162  0.08195316    -0.20400
C258        C  0.56786838  0.44275604  0.06888593    -0.07000
C259        C  0.59108229  0.45801487  0.08594261     0.13900
C260        C  0.59790035  0.44807950  0.11431068    -0.20500
C261        C  0.58196144  0.42327557  0.12588871    -0.07000
C262        C  0.55815257  0.40844681  0.11032832     0.13900
C263        C  0.54051709  0.38176145  0.12226544    -0.23800
H264        H  0.53355420  0.40681353  0.06846648     0.15100
H265        H  0.61632495  0.45919217  0.12565328     0.15200
C266        C  0.60907675  0.48436602  0.07283545    -0.23800
H267        H  0.52277680  0.37276122  0.10700829     0.05400
H268        H  0.53664826  0.38098894  0.15268024     0.08600
H269        H  0.54857934  0.37094348  0.11657315     0.08600
H270        H  0.60084494  0.49523459  0.07620858     0.08600
H271        H  0.61363969  0.48443665  0.04282747     0.08600
H272        H  0.62643745  0.49374608  0.08917067     0.05400
C273        C  0.58890438  0.45736915  0.24990413    -0.20400
C274        C  0.56603365  0.44133313  0.26710248    -0.07000
C275        C  0.55065322  0.41648167  0.25469367     0.13900
C276        C  0.55895317  0.40789350  0.22632728    -0.20500
C277        C  0.58242437  0.42352884  0.21052862    -0.07000
C278        C  0.59749312  0.44868845  0.22215606     0.13900
C279        C  0.62330832  0.46639951  0.20784725    -0.23800
H280        H  0.60087942  0.47631193  0.26006928     0.15100
H281        H  0.54773565  0.38847226  0.21817127     0.15200
C282        C  0.52595805  0.39877719  0.27261819    -0.23800
H283        H  0.63637142  0.47332543  0.23173756     0.05400
H284        H  0.62474880  0.48248171  0.19391006     0.08600
H285        H  0.62904131  0.45767821  0.18753529     0.08600
H286        H  0.52326926  0.42658789  0.91323191     0.08600
H287        H  0.52464245  0.40564245  0.94504681     0.08600
H288        H  0.51617743  0.38003610  0.25950947     0.05400
C289        C  0.90767143  0.46530776  0.07883305    -0.20400
C290        C  0.91555720  0.44994340  0.06901534    -0.07000
C291        C  0.90673392  0.42768740  0.08910347     0.13900
C292        C  0.88890828  0.42046298  0.11698382    -0.20500
C293        C  0.88019138  0.43525190  0.12568119    -0.07000
C294        C  0.89013830  0.45825843  0.10721712     0.13900
C295        C  0.88142639  0.47475951  0.11638307    -0.23800
H296        H  0.91447185  0.48231630  0.06314549     0.15100
H297        H  0.88058777  0.40244223  0.13033797     0.15200
C298        C  0.91478157  0.41069107  0.07938072    -0.23800
H299        H  0.89120203  0.49214540  0.09947807     0.05400
H300        H  0.88483270  0.47996395  0.14648797     0.08600
H301        H  0.86146130  0.46482553  0.11057090     0.08600
H302        H  0.93490412  0.42061968  0.08363849     0.08600
H303        H  0.91027356  0.40471971  0.04965463     0.08600
H304        H  0.90553649  0.39373240  0.09724666     0.05400
C305        C  0.90322794  0.46345585  0.26315343    -0.20400
C306        C  0.91581656  0.45184278  0.26673659    -0.07000
C307        C  0.91135917  0.43343755  0.24044717     0.13900
C308        C  0.89315654  0.42591959  0.21292326    -0.20500
C309        C  0.87968556  0.43668161  0.21061995    -0.07000
C310        C  0.88548357  0.45636283  0.23523393     0.13900
C311        C  0.87271973  0.46972437  0.23364031    -0.23800
H312        H  0.90665879  0.47763717  0.28320849     0.15100
H313        H  0.88829553  0.41041004  0.19485486     0.15200
C314        C  0.92439172  0.42040550  0.24294606    -0.23800
H315        H  0.86238376  0.46642631  0.26009484     0.05400
H316        H  0.85976174  0.46369923  0.20979666     0.08600
H317        H  0.88663084  0.49002710  0.23037504     0.08600
H318        H  0.92284693  0.41148963  0.93605506     0.08600
H319        H  0.94444905  0.43411422  0.23913866     0.08600
H320        H  0.91805587  0.40593180  0.22092641     0.05400
C321        C  0.03030140  0.48651407  0.02866406    -0.20400
C322        C  0.03614843  0.47561125  0.33354108    -0.07000
C323        C  0.01820757  0.46010307  0.30640659     0.13900
C324        C  0.99512180  0.45668418  0.30734863    -0.20500
C325        C  0.98934004  0.46815122  0.33475642    -0.07000
C326        C  0.00694185  0.48230303  0.03031657     0.13900
C327        C  0.00187682  0.49485096  0.06102390    -0.23800
H328        H  0.04386703  0.49839316  0.04954501     0.15100
H329        H  0.98132564  0.44463519  0.28682085     0.15200
C330        C  0.02280210  0.44639553  0.27713790    -0.23800
H331        H  0.01848876  0.50743069  0.07818642     0.05400
H332        H  0.98862984  0.48428236  0.41126143     0.08600
H333        H  0.99578542  0.50623260  0.04861459     0.08600
H334        H  0.02845110  0.43499905  0.29089792     0.08600
H335        H  0.03818588  0.46210062  0.92289704     0.08600
H336        H  0.00607936  0.43367774  0.26027421     0.05400
C337        C  0.12551850  0.48765644  0.26087390    -0.20400
C338        C  0.11157828  0.49756668  0.26714584    -0.07000
C339        C  0.11495179  0.51680765  0.24359732     0.13900
C340        C  0.13328856  0.52667927  0.21588104    -0.20500
C341        C  0.14794768  0.51746683  0.21063538    -0.07000
C342        C  0.14349499  0.49719098  0.23270752     0.13900
C343        C  0.15804996  0.48585212  0.22826683    -0.23800
H344        H  0.12299260  0.47296437  0.27902493     0.15100
H345        H  0.13734826  0.54282606  0.20009615     0.15200
C346        C  0.10061851  0.52829033  0.24939224    -0.23800
H347        H  0.16815371  0.48828032  0.25463212     0.05400
H348        H  0.17153759  0.49425973  0.20499807     0.08600
H349        H  0.14532329  0.46564844  0.22231701     0.08600
H350        H  0.10009479  0.53308309  0.93506793     0.08600
H351        H  0.07775812  0.50819677  0.90451087     0.08600
H352        H  0.10632098  0.54377533  0.22940704     0.05400
C353        C  0.12520012  0.48897443  0.07604559    -0.20400
C354        C  0.11181408  0.49943058  0.06905696    -0.07000
C355        C  0.11536678  0.51883865  0.09235526     0.13900
C356        C  0.13373215  0.52869023  0.11998596    -0.20500
C357        C  0.14797256  0.51905037  0.12561783    -0.07000
C358        C  0.14306368  0.49838745  0.10433777     0.13900
C359        C  0.15728644  0.48684427  0.11059828    -0.23800
H360        H  0.12234001  0.47401912  0.05824420     0.15100
H361        H  0.13802699  0.54498628  0.13556163     0.15200
C362        C  0.10107468  0.53034904  0.08658936    -0.23800
H363        H  0.15090114  0.47065277  0.09183186     0.05400
H364        H  0.15481510  0.48025616  0.14002171     0.08600
H365        H  0.17712078  0.50067312  0.10505764     0.08600
H366        H  0.08122773  0.51610340  0.09129391     0.08600
H367        H  0.10394328  0.53781990  0.05763698     0.08600
H368        H  0.10685525  0.54588251  0.10647572     0.05400
C369        C  0.37258016  0.59501322  0.24134939    -0.20400
C370        C  0.38760376  0.61925171  0.25609985    -0.07000
C371        C  0.41288580  0.63387770  0.24648106     0.13900
C372        C  0.42233763  0.62380306  0.22283845    -0.20500
C373        C  0.40729159  0.59954563  0.20858091    -0.07000
C374        C  0.38213360  0.58494969  0.21803690     0.13900
C375        C  0.36552393  0.55846604  0.20473910    -0.23800
H376        H  0.35325528  0.58362463  0.24874371     0.15100
H377        H  0.44174216  0.63473584  0.21591994     0.15200
C378        C  0.43030926  0.65955340  0.26240488    -0.23800
H379        H  0.34656238  0.54938887  0.21587160     0.05400
H380        H  0.37280011  0.54747067  0.21413231     0.08600
H381        H  0.36444070  0.55808566  0.17379193     0.08600
H382        H  0.42989819  0.65869349  0.29352567     0.08600
H383        H  0.42502730  0.67217235  0.25274808     0.08600
H384        H  0.44953822  0.66771663  0.25322624     0.05400
C385        C  0.41307610  0.62189762  0.12570505    -0.20400
C386        C  0.40441443  0.59660448  0.12493410    -0.07000
C387        C  0.38418656  0.58000149  0.10181068     0.13900
C388        C  0.37341720  0.58924218  0.07971848    -0.20500
C389        C  0.38256108  0.61463778  0.07959718    -0.07000
C390        C  0.40240373  0.63116370  0.10327385     0.13900
C391        C  0.41215019  0.65842822  0.10538101    -0.23800
H392        H  0.42873350  0.63457798  0.14315600     0.15100
H393        H  0.35822203  0.57659205  0.06144952     0.15200
C394        C  0.37349619  0.55249991  0.09951395    -0.23800
H395        H  0.42680044  0.66826360  0.12688483     0.05400
H396        H  0.39704050  0.66056379  0.11295611     0.08600
H397        H  0.42013297  0.66759735  0.07800970     0.08600
H398        H  0.35359804  0.54175412  0.10638365     0.08600
H399        H  0.38217517  0.54641594  0.11919938     0.08600
H400        H  0.37570160  0.54773229  0.07056427     0.05400
C401        C  0.25388249  0.56684486  0.21151844    -0.20400
C402        C  0.23837600  0.57524595  0.20988639    -0.07000
C403        C  0.24424083  0.59637581  0.23058951     0.13900
C404        C  0.26548597  0.60859388  0.25260092    -0.20500
C405        C  0.28095806  0.60002478  0.25526484    -0.07000
C406        C  0.27521124  0.57898832  0.23372181     0.13900
C407        C  0.29086367  0.56871390  0.23434087    -0.23800
H408        H  0.24888522  0.55026012  0.19607312     0.15100
H409        H  0.26965351  0.62473328  0.26855225     0.15200
C410        C  0.22795760  0.60592743  0.23000045    -0.23800
H411        H  0.28346439  0.55233889  0.21557305     0.05400
H412        H  0.29147776  0.56260142  0.26316228     0.08600
H413        H  0.30973906  0.58313598  0.22456971     0.08600
H414        H  0.20947995  0.59155587  0.24113138     0.08600
H415        H  0.22615540  0.61070770  0.20092964     0.08600
H416        H  0.23553601  0.62290338  0.24745081     0.05400
C417        C  0.26848302  0.61358213  0.09058554    -0.20400
C418        C  0.28108257  0.60256896  0.08112078    -0.07000
C419        C  0.27270104  0.57875199  0.09604899     0.13900
C420        C  0.25146896  0.56631081  0.11840092    -0.20500
C421        C  0.23849225  0.57699897  0.12663969    -0.07000
C422        C  0.24711523  0.60096576  0.11267820     0.13900
C423        C  0.23388884  0.61348213  0.11959925    -0.23800
H424        H  0.27466318  0.63172043  0.07924928     0.15100
H425        H  0.24458256  0.54781102  0.12889404     0.15200
C426        C  0.28606436  0.56632362  0.08914446    -0.23800
H427        H  0.24620517  0.63121183  0.13491754     0.05400
H428        H  0.22877117  0.61764437  0.09233714     0.08600
H429        H  0.21681556  0.60185394  0.13617196     0.08600
H430        H  0.30564822  0.57904921  0.09737222     0.08600
H431        H  0.28474613  0.56114763  0.05917796     0.08600
H432        H  0.27807501  0.54893052  0.10577204     0.05400
C433        C  0.40532104  0.72756410  0.08637274    -0.20400
C434        C  0.37993571  0.71136449  0.07969375    -0.07000
C435        C  0.36363769  0.71585332  0.09805440     0.13900
C436        C  0.37320276  0.73694845  0.12081277    -0.20500
C437        C  0.39852758  0.75366084  0.12610623    -0.07000
C438        C  0.41483555  0.74872111  0.10924599     0.13900
C439        C  0.44225526  0.76534058  0.11474483    -0.23800
H440        H  0.41791926  0.72417662  0.07270667     0.15100
H441        H  0.36081490  0.74081536  0.13385415     0.15200
C442        C  0.33609133  0.69839525  0.09444014    -0.23800
H443        H  0.45140369  0.77290971  0.08722844     0.05400
H444        H  0.44881281  0.75434472  0.12708310     0.08600
H445        H  0.44793812  0.78120952  0.13375880     0.08600
H446        H  0.33016227  0.67919082  0.10207716     0.08600
H447        H  0.33024267  0.69870103  0.06539485     0.08600
H448        H  0.32638286  0.70379464  0.11332069     0.05400
C449        C  0.36047554  0.71858088  0.24747412    -0.20400
C450        C  0.37515659  0.70949687  0.25390584    -0.07000
C451        C  0.39810998  0.72086882  0.23529965     0.13900
C452        C  0.40637308  0.74193825  0.21280803    -0.20500
C453        C  0.39238073  0.75195992  0.20860102    -0.07000
C454        C  0.36887909  0.73978830  0.22534092     0.13900
C455        C  0.35272523  0.74926676  0.22047598    -0.23800
H456        H  0.34279646  0.70976783  0.26132584     0.15100
H457        H  0.42415077  0.75106980  0.19917465     0.15200
C458        C  0.41376699  0.71067701  0.23828159    -0.23800
H459        H  0.33443205  0.73667263  0.23372871     0.05400
H460        H  0.34980460  0.75083943  0.19027422     0.08600
H461        H  0.36143889  0.76772760  0.23391125     0.08600
H462        H  0.40278958  0.69075277  0.22999720     0.08600
H463        H  0.42064502  0.71264266  0.26733265     0.08600
H464        H  0.43005952  0.72074227  0.21954064     0.05400
C465        C  0.44889755  0.54080735  0.21268714    -0.20400
C466        C  0.45885054  0.56624631  0.20789069    -0.07000
C467        C  0.47904274  0.58394024  0.23005908     0.13900
C468        C  0.48748714  0.57566750  0.25854254    -0.20500
C469        C  0.47653470  0.55020444  0.26481564    -0.07000
C470        C  0.45776113  0.53256487  0.24067886     0.13900
C471        C  0.44596013  0.50505937  0.24606044    -0.23800
H472        H  0.43303466  0.52727021  0.19635713     0.15100
H473        H  0.50204702  0.58908996  0.27705188     0.15200
C474        C  0.49121807  0.61151815  0.22446161    -0.23800
H475        H  0.43119215  0.49385821  0.22518870     0.05400
H476        H  0.43775805  0.49936709  0.27452631     0.08600
H477        H  0.45999080  0.50075184  0.24272780     0.08600
H478        H  0.47803513  0.61670979  0.22987941     0.08600
H479        H  0.49812491  0.61663504  0.19526118     0.08600
H480        H  0.50706246  0.62264035  0.24369628     0.05400
C481        C  0.48883067  0.57655213  0.07393483    -0.20400
C482        C  0.47805650  0.55124312  0.06635781    -0.07000
C483        C  0.45813132  0.53313013  0.08856310     0.13900
C484        C  0.44845155  0.54077807  0.11625393    -0.20500
C485        C  0.45857359  0.56611708  0.12277710    -0.07000
C486        C  0.47951904  0.58422590  0.10207515     0.13900
C487        C  0.49187668  0.61179434  0.10793084    -0.23800
H488        H  0.50403885  0.59046795  0.05673723     0.15100
H489        H  0.43196386  0.52689751  0.13116189     0.15200
C490        C  0.44604253  0.50575319  0.08136470    -0.23800
H491        H  0.51147198  0.62042902  0.11530205     0.05400
H492        H  0.48340248  0.61613300  0.13075669     0.08600
H493        H  0.49090355  0.62041366  0.08167347     0.08600
H494        H  0.45960388  0.50088400  0.08548412     0.08600
H495        H  0.43897629  0.50117833  0.05217342     0.08600
H496        H  0.43039015  0.49409782  0.10074558     0.05400
C497        C  0.52824740  0.51477007  0.02672880    -0.20400
C498        C  0.50994402  0.50880786  0.33234096    -0.07000
C499        C  0.52356827  0.50885357  0.30130641     0.13900
C500        C  0.53495271  0.49595544  0.30393757    -0.20500
C501        C  0.53340409  0.48293017  0.33648171    -0.07000
C502        C  0.54047670  0.50266893  0.02843674     0.13900
C503        C  0.55931640  0.51006936  0.05886633    -0.23800
H504        H  0.53229106  0.52870535  0.04763481     0.15100
H505        H  0.54541318  0.49626400  0.28019265     0.15200
C506        C  0.52694526  0.52278291  0.26538208    -0.23800
H507        H  0.56218529  0.52582800  0.07589398     0.05400
H508        H  0.53453534  0.47727630  0.41762103     0.08600
H509        H  0.55314550  0.49424299  0.07829345     0.08600
H510        H  0.53529898  0.54277744  0.27150740     0.08600
H511        H  0.46980601  0.47816174  0.95232156     0.08600
H512        H  0.53929635  0.52175603  0.24535779     0.05400
C513        C  0.41290175  0.85819636  0.26134363    -0.20400
C514        C  0.43755297  0.87787506  0.26589067    -0.07000
C515        C  0.45526654  0.88065335  0.24011729     0.13900
C516        C  0.44818035  0.86233552  0.21246540    -0.20500
C517        C  0.42374204  0.84161916  0.20964104    -0.07000
C518        C  0.40568098  0.84035754  0.23312804     0.13900
C519        C  0.37869523  0.82014940  0.22982962    -0.23800
H520        H  0.39923774  0.85626218  0.28080364     0.15100
H521        H  0.46207995  0.86331897  0.19474576     0.15200
C522        C  0.48188099  0.90189606  0.24336239    -0.23800
H523        H  0.37448395  0.80750127  0.20585353     0.05400
H524        H  0.37218249  0.80901721  0.25608043     0.08600
H525        H  0.36826595  0.82873440  0.22549221     0.08600
H526        H  0.48953108  0.90019002  0.93447459     0.08600
H527        H  0.48368285  0.91985032  0.23977445     0.08600
H528        H  0.49336353  0.90086678  0.22158094     0.05400
C529        C  0.41914447  0.86319655  0.07953785    -0.20400
C530        C  0.44368022  0.87830407  0.06774291    -0.07000
C531        C  0.46172786  0.87654721  0.08611161     0.13900
C532        C  0.45447466  0.85872430  0.11453816    -0.20500
C533        C  0.42975172  0.84283611  0.12510863    -0.07000
C534        C  0.41196907  0.84550218  0.10809714     0.13900
C535        C  0.38526107  0.82889470  0.11888130    -0.23800
H536        H  0.40538189  0.86452889  0.06519494     0.15100
H537        H  0.46800733  0.85629019  0.12711955     0.15200
C538        C  0.48845881  0.89196599  0.07497230    -0.23800
H539        H  0.37373065  0.83312095  0.10228285     0.05400
H540        H  0.38313596  0.83169746  0.14891634     0.08600
H541        H  0.37834896  0.80908326  0.11406951     0.08600
H542        H  0.49979515  0.90295600  0.09948886     0.08600
H543        H  0.49020817  0.90755009  0.38928570     0.08600
H544        H  0.49405964  0.87948500  0.06579750     0.05400
C545        C  0.49382538  0.97073288  0.30215766    -0.20400
C546        C  0.47926207  0.95821879  0.33379370    -0.07000
C547        C  0.48312560  0.97277657  0.03036871     0.13900
C548        C  0.49780763  0.99889361  0.02816108    -0.20500
C549        C  0.50773394  0.01117172  0.32916942    -0.12800
C550        C  0.50807750  0.99683252  0.29938178     0.13900
C551        C  0.52381813  0.00853622  0.26487420    -0.23800
H552        H  0.49437537  0.95998176  0.27941675     0.15100
H553        H  0.49738723  0.00953738  0.05118929     0.15200
C554        C  0.46705758  0.96086865  0.06451709    -0.23800
H555        H  0.52287018  0.99441527  0.24597269     0.05400
H556        H  0.54798667  0.02186469  0.94019248     0.08600
H557        H  0.51740097  0.01839545  0.24848525     0.08600
H558        H  0.47319067  0.95075349  0.08088898     0.08600
H559        H  0.44379640  0.94724053  0.39004669     0.08600
H560        H  0.46796690  0.97490313  0.08357219     0.05400
C561        C  0.47068431  0.93209981  0.66785564     0.80100
N562        N  0.45924352  0.91765186  0.36701407    -0.78200
C563        C  0.44632178  0.89240913  0.36701943     0.82500
N564        N  0.43889137  0.87988590  0.33410454    -0.78200
C565        C  0.44921516  0.89426759  0.63402034     0.82600
N566        N  0.46343456  0.91959777  0.63452638    -0.79900
C567        C  0.49718322  0.52158613  0.66436329     0.80100
N568        N  0.49202067  0.52861516  0.63174093    -0.78200
C569        C  0.48273298  0.54269463  0.63219020     0.82500
N570        N  0.47812052  0.54944755  0.66529145    -0.78200
C571        C  0.48250242  0.54266716  0.36583550     0.82600
N572        N  0.49258122  0.52921274  0.36568503    -0.79900
C573        C  0.42035600  0.82033746  0.48185563     0.02200
C574        C  0.41840276  0.82020881  0.52129738     0.02100
C575        C  0.40953334  0.79790193  0.54094569    -0.18400
C576        C  0.40197033  0.77571814  0.52207170     0.02200
C577        C  0.40473963  0.77610576  0.48281962     0.02100
C578        C  0.41393584  0.79839930  0.46316992    -0.18400
H579        H  0.41529895  0.79847327  0.43284696     0.04200
H580        H  0.40819527  0.79774230  0.57127391     0.04200
O581        O  0.31408992  0.63929126  0.38300642    -0.85500
O582        O  0.35341126  0.68651778  0.36355974    -0.82500
C583        C  0.37022654  0.69109994  0.38611944     0.98000
O584        O  0.38078044  0.67986198  0.38296472    -0.82600
O585        O  0.38583224  0.64146577  0.36647305    -0.85200
C586        C  0.37124352  0.62303719  0.38704753     1.02500
O587        O  0.34833621  0.61088892  0.38213093    -0.78000
O588        O  0.30396266  0.60278763  0.36306352    -0.78200
C589        C  0.30112780  0.61584985  0.38594224     1.02500
O590        O  0.30151090  0.62695825  0.63847038    -0.85500
O591        O  0.34335264  0.67245923  0.61940299    -0.82500
C592        C  0.36595548  0.68927400  0.61592491     0.98000
O593        O  0.38153120  0.69015103  0.63792016    -0.82600
O594        O  0.38377045  0.65004876  0.62137941    -0.85200
C595        C  0.37659152  0.62759490  0.61791070     1.02500
O596        O  0.35979135  0.61108801  0.63885811    -0.78000
O597        O  0.31718824  0.60692101  0.61873545    -0.78100
C598        C  0.30113679  0.61168660  0.61597902     1.02400
Cr599      Cr  0.32917130  0.65500535  0.66762489     1.93700
Cr600      Cr  0.38011034  0.66358267  0.66887027     1.93200
Cr601      Cr  0.33330290  0.61036905  0.66742641     1.39100
O602        O  0.34762940  0.64302613  0.66803360    -1.23200
C603        C  0.44605688  0.57517274  0.51927882     0.02200
C604        C  0.44512667  0.57450072  0.47980992     0.02100
C605        C  0.43144637  0.58193455  0.46118990    -0.18400
C606        C  0.41872542  0.59000540  0.48113092     0.02200
C607        C  0.42053562  0.59158558  0.52060765     0.02100
C608        C  0.43402452  0.58399846  0.53921368    -0.18400
H609        H  0.43499746  0.58476256  0.56960272     0.04200
H610        H  0.43070063  0.58144281  0.43078826     0.04200
C611        C  0.21536089  0.56135180  0.48090587     0.02200
C612        C  0.21552128  0.55877777  0.52012813     0.02100
C613        C  0.19335131  0.54300390  0.53917378    -0.18400
C614        C  0.17086758  0.52974545  0.51998653     0.02200
C615        C  0.17064231  0.53246949  0.48075333     0.02100
C616        C  0.19292693  0.54815016  0.46160745    -0.18400
H617        H  0.19282148  0.54999132  0.43138308     0.04200
H618        H  0.19356176  0.54143479  0.56944907     0.04200
C619        C  0.06205344  0.48215000  0.66556816     0.80100
N620        N  0.07309184  0.48483830  0.36736258    -0.78200
C621        C  0.09658595  0.49114941  0.36796763     0.82500
N622        N  0.10873208  0.49383802  0.66704467    -0.78200
C623        C  0.09740277  0.49053535  0.63370710     0.82600
N624        N  0.07414822  0.48482677  0.63310541    -0.79900
C625        C  0.96446770  0.46339075  0.33452679     0.80100
N626        N  0.95356016  0.46262085  0.63324075    -0.78200
C627        C  0.93057200  0.45782565  0.63353102     0.82500
N628        N  0.91932394  0.45526874  0.66672191    -0.78200
C629        C  0.93004188  0.45611937  0.36766276     0.82600
N630        N  0.95273491  0.46049701  0.36744851    -0.79900
C631        C  0.54371243  0.46727784  0.66798890     0.80100
N632        N  0.55081493  0.46233124  0.63511089    -0.78200
C633        C  0.56350226  0.45151593  0.63538877     0.82500
N634        N  0.56902045  0.44553850  0.66847640    -0.78200
C635        C  0.56293925  0.45078905  0.36829541     0.82600
N636        N  0.55236756  0.46370366  0.36877985    -0.79900
C637        C  0.85776349  0.42459607  0.48061134     0.02200
C638        C  0.85723731  0.42518093  0.52008801     0.02100
C639        C  0.83448915  0.41363063  0.53842811    -0.18400
C640        C  0.81245042  0.40180326  0.51815566     0.02200
C641        C  0.81303698  0.40166025  0.47863371     0.02100
C642        C  0.83569683  0.41286765  0.46032298    -0.18400
H643        H  0.83619545  0.41258731  0.42991798     0.04200
H644        H  0.83392012  0.41375682  0.56883217     0.04200
C645        C  0.59976425  0.41871167  0.52139695     0.02200
C646        C  0.59829696  0.41699522  0.48198375     0.02100
C647        C  0.60890661  0.40629301  0.46295816    -0.18400
C648        C  0.61917673  0.39549778  0.48247057     0.02200
C649        C  0.61887873  0.39545620  0.52208711     0.02100
C650        C  0.61012710  0.40798062  0.54096012    -0.18400
H651        H  0.61114604  0.40918623  0.57130692     0.04200
H652        H  0.60872717  0.40592616  0.43253665     0.04200
O653        O  0.71235881  0.33221868  0.37934587    -0.85500
O654        O  0.66968836  0.28719469  0.36163149    -0.82500
C655        C  0.65397221  0.28486103  0.38473412     0.98000
O656        O  0.64614120  0.29865611  0.38218435    -0.82600
O657        O  0.64510128  0.33936594  0.36322265    -0.85200
C658        C  0.66059984  0.35725865  0.38386880     1.02500
O659        O  0.68323778  0.36663846  0.37992298    -0.78000
O660        O  0.72576346  0.37012365  0.36114339    -0.78200
C661        C  0.72751557  0.35546567  0.38221825     1.02500
O662        O  0.72451241  0.34132108  0.63542148    -0.85500
O663        O  0.67958871  0.29894067  0.61684065    -0.82500
C664        C  0.65666717  0.28347176  0.61451396     0.98000
O665        O  0.64272664  0.28500521  0.63712446    -0.82600
O666        O  0.64703061  0.32873962  0.61850643    -0.85200
C667        C  0.65690440  0.35186654  0.61522989     1.02500
O668        O  0.67399551  0.36713696  0.63702991    -0.78000
O669        O  0.71449071  0.36702461  0.61903761    -0.78100
C670        C  0.72771468  0.35877929  0.61483480     1.02400
Cr671      Cr  0.69539920  0.31545842  0.66503152     1.93700
Cr672      Cr  0.64799067  0.31395230  0.66649102     1.93200
Cr673      Cr  0.69800514  0.36427282  0.66705233     1.39100
O674        O  0.68053726  0.33130077  0.66617194    -1.23200
C675        C  0.60968728  0.19669233  0.51719794     0.02200
C676        C  0.60766200  0.19712922  0.47793272     0.02100
C677        C  0.59474450  0.17465499  0.45794887    -0.18400
C678        C  0.58353692  0.15155976  0.47636416     0.02200
C679        C  0.58676661  0.15123935  0.51548469     0.02100
C680        C  0.59944545  0.17379165  0.53542116    -0.18400
H681        H  0.60104604  0.17349855  0.56566903     0.04200
H682        H  0.59333858  0.17515811  0.42769979     0.04200
C683        C  0.52937344  0.04057141  0.66432864     0.80100
N684        N  0.53613740  0.05332823  0.63133098    -0.78200
C685        C  0.54874783  0.07852374  0.63107429     0.82500
N686        N  0.55438247  0.09110349  0.66389572    -0.78200
C687        C  0.54240705  0.07701885  0.36238103     0.82600
N688        N  0.52892673  0.05172162  0.36219996    -0.79900
C689        C  0.58165298  0.10511819  0.58581428    -0.20400
C690        C  0.55681647  0.09256361  0.59565421    -0.07000
C691        C  0.54102972  0.09630799  0.57447457     0.13900
C692        C  0.55087187  0.11399750  0.54540356    -0.20500
C693        C  0.57613296  0.12804718  0.53755748    -0.07000
C694        C  0.59153630  0.12283404  0.55689618     0.13900
C695        C  0.61856226  0.13657114  0.54796236    -0.23800
H696        H  0.59358625  0.10194888  0.60208623     0.15100
H697        H  0.53918242  0.11816715  0.53064421     0.15200
C698        C  0.51415280  0.08270576  0.58402496    -0.23800
H699        H  0.62767779  0.12968056  0.56511694     0.05400
H700        H  0.62796772  0.15674793  0.55368431     0.08600
H701        H  0.62105060  0.13392186  0.51798638     0.08600
H702        H  0.51196791  0.08719659  0.61317716     0.08600
H703        H  0.50536542  0.06232270  0.58159830     0.08600
H704        H  0.50443323  0.08796143  0.56490535     0.05400
C705        C  0.53863552  0.10444544  0.40527520    -0.20400
C706        C  0.54926947  0.09130650  0.39758674    -0.07000
C707        C  0.56893810  0.09539022  0.41988432     0.13900
C708        C  0.57882722  0.11404467  0.44757587    -0.20500
C709        C  0.56935128  0.12854034  0.45335204    -0.07000
C710        C  0.54825465  0.12282960  0.43317637     0.13900
C711        C  0.53608446  0.13637948  0.44052205    -0.23800
H712        H  0.52340827  0.10106753  0.38818534     0.15100
H713        H  0.59488380  0.11831446  0.46314323     0.15200
C714        C  0.58030251  0.08103839  0.41299892    -0.23800
H715        H  0.51905647  0.12858524  0.42371271     0.05400
H716        H  0.54861218  0.15628626  0.43298411     0.08600
H717        H  0.53107277  0.13472413  0.47062501     0.08600
H718        H  0.58758655  0.08439296  0.38393402     0.08600
H719        H  0.56620730  0.06082848  0.41687544     0.08600
H720        H  0.59566614  0.08664884  0.43268576     0.05400
C721        C  0.61967632  0.24589557  0.58671571    -0.20400
C722        C  0.64549262  0.26243095  0.58703150    -0.07000
C723        C  0.65941118  0.25752096  0.56264032     0.13900
C724        C  0.64718751  0.23605769  0.54003238    -0.20500
C725        C  0.62150614  0.21970415  0.54016929    -0.07000
C726        C  0.60757211  0.22478956  0.56370610     0.13900
C727        C  0.57987491  0.20832481  0.56555816    -0.23800
H728        H  0.60858277  0.24922235  0.60489030     0.15100
H729        H  0.65781125  0.23168798  0.52271209     0.15200
C730        C  0.68704970  0.27435600  0.56026216    -0.23800
H731        H  0.57161989  0.19254372  0.54559728     0.05400
H732        H  0.57232420  0.21950547  0.55889823     0.08600
H733        H  0.57403358  0.20063057  0.59433132     0.08600
H734        H  0.69529038  0.27500291  0.58776767     0.08600
H735        H  0.69279734  0.29337580  0.55177069     0.08600
H736        H  0.69454642  0.26770328  0.53915846     0.05400
C737        C  0.61853817  0.25263827  0.42289038    -0.20400
C738        C  0.64328801  0.26429221  0.41244646    -0.07000
C739        C  0.65663936  0.25469845  0.42627636     0.13900
C740        C  0.64443892  0.23281859  0.44765842    -0.20500
C741        C  0.61960181  0.22081331  0.45689445    -0.07000
C742        C  0.60654637  0.23098572  0.44500121     0.13900
C743        C  0.57992230  0.21878788  0.45508940    -0.23800
H744        H  0.60826557  0.25994702  0.41260751     0.15100
H745        H  0.65427125  0.22479956  0.45691497     0.15200
C746        C  0.68384737  0.26762022  0.41964994    -0.23800
H747        H  0.57250642  0.22923530  0.44366982     0.05400
H748        H  0.57786397  0.21795359  0.48601223     0.08600
H749        H  0.56885146  0.19965264  0.44353246     0.08600
H750        H  0.69359301  0.28729660  0.42891073     0.08600
H751        H  0.68765507  0.26676966  0.38959870     0.08600
H752        H  0.69148275  0.25877781  0.43576415     0.05400
C753        C  0.62822274  0.35095316  0.42757546    -0.20400
C754        C  0.65161074  0.36738372  0.41180124    -0.07000
C755        C  0.66464811  0.39307721  0.42069669     0.13900
C756        C  0.65384662  0.40148868  0.44482391    -0.20500
C757        C  0.63045774  0.38499112  0.46032267    -0.07000
C758        C  0.61748494  0.35943141  0.45155317     0.13900
C759        C  0.59210383  0.34110865  0.46668478    -0.23800
H760        H  0.61811048  0.33130956  0.42073722     0.15100
H761        H  0.66347196  0.42117741  0.45111198     0.15200
C762        C  0.68929838  0.41194797  0.40350138    -0.23800
H763        H  0.58397390  0.32215556  0.45502834     0.05400
H764        H  0.57977003  0.34714062  0.45949772     0.08600
H765        H  0.59308311  0.33981480  0.49744375     0.08600
H766        H  0.68782282  0.41105081  0.37243280     0.08600
H767        H  0.70308795  0.40822830  0.41261528     0.08600
H768        H  0.69611178  0.43123891  0.41217533     0.05400
C769        C  0.62202680  0.35175826  0.58933254    -0.20400
C770        C  0.64715812  0.36138034  0.58807009    -0.07000
C771        C  0.66276478  0.38158832  0.56399216     0.13900
C772        C  0.65293045  0.39193893  0.54214569    -0.20500
C773        C  0.62799339  0.38296537  0.54444022    -0.07000
C774        C  0.61230900  0.36269858  0.56855298     0.13900
C775        C  0.58547680  0.35283299  0.57322621    -0.23800
H776        H  0.61022084  0.33651638  0.60831713     0.15100
H777        H  0.66492119  0.40768159  0.52408997     0.15200
C778        C  0.68979909  0.39236649  0.56136215    -0.23800
H779        H  0.57573855  0.33584714  0.59101762     0.05400
H780        H  0.57608733  0.34805158  0.54568040     0.08600
H781        H  0.58359666  0.36697908  0.58704175     0.08600
H782        H  0.69260106  0.37749650  0.55399567     0.08600
H783        H  0.69867854  0.40082967  0.58862850     0.08600
H784        H  0.69899555  0.40715929  0.53963638     0.05400
C785        C  0.78183838  0.40498204  0.55288638    -0.20400
C786        C  0.78920457  0.38990928  0.53934341    -0.07000
C787        C  0.77600965  0.36459524  0.54964954     0.13900
C788        C  0.75525968  0.35475927  0.57266839    -0.20500
C789        C  0.74786902  0.36983599  0.58678822    -0.07000
C790        C  0.76145733  0.39538650  0.57669680     0.13900
C791        C  0.75567286  0.41307949  0.59240976    -0.23800
H792        H  0.79271202  0.42462651  0.54589462     0.15100
H793        H  0.74518290  0.33528903  0.58063826     0.15200
C794        C  0.78450619  0.34827210  0.53802355    -0.23800
H795        H  0.76911853  0.43254188  0.58303514     0.05400
H796        H  0.75608087  0.41282427  0.62353406     0.08600
H797        H  0.73735631  0.40763768  0.58261166     0.08600
H798        H  0.80343876  0.35628779  0.54848016     0.08600
H799        H  0.78438176  0.34688348  0.50710628     0.08600
H800        H  0.77243378  0.32911301  0.54948231     0.05400
C801        C  0.78202296  0.36674228  0.43888598    -0.20400
C802        C  0.79037466  0.38970846  0.45566031    -0.07000
C803        C  0.77804123  0.40141825  0.44818466     0.13900
C804        C  0.75706215  0.38931956  0.42530829    -0.20500
C805        C  0.74833768  0.36603642  0.40899384    -0.07000
C806        C  0.76117002  0.35468950  0.41575179     0.13900
C807        C  0.75391097  0.33059100  0.39721979    -0.23800
H808        H  0.79223537  0.35842119  0.44336880     0.15100
H809        H  0.74772393  0.39843611  0.41954935     0.15200
C810        C  0.78707788  0.42706866  0.46242349    -0.23800
H811        H  0.76687462  0.32529044  0.40409700     0.05400
H812        H  0.75381237  0.33247095  0.36626972     0.08600
H813        H  0.73544815  0.31528660  0.40698384     0.08600
H814        H  0.80428473  0.43562743  0.47886458     0.08600
H815        H  0.77277023  0.42606165  0.48045017     0.08600
H816        H  0.79077864  0.43954399  0.43827792     0.05400
C817        C  0.55628524  0.41784464  0.41098782    -0.20400
C818        C  0.56904179  0.44333922  0.40319938    -0.07000
C819        C  0.58935950  0.46055125  0.42552123     0.13900
C820        C  0.59760532  0.45162532  0.45353569    -0.20500
C821        C  0.58589878  0.42594941  0.45930550    -0.07000
C822        C  0.56438916  0.40891673  0.43894168     0.13900
C823        C  0.55034606  0.38125336  0.44593691    -0.23800
H824        H  0.54056017  0.40479109  0.39389156     0.15100
H825        H  0.61405779  0.46458145  0.46934711     0.15200
C826        C  0.60314114  0.48811249  0.41825317    -0.23800
H827        H  0.53349737  0.37078540  0.42845312     0.05400
H828        H  0.54471351  0.37724631  0.47581858     0.08600
H829        H  0.56187958  0.37423210  0.43912217     0.08600
H830        H  0.59058143  0.49430868  0.42187687     0.08600
H831        H  0.61048267  0.49230132  0.38918420     0.08600
H832        H  0.61880852  0.49893908  0.43789358     0.05400
C833        C  0.59658406  0.46046077  0.59159030    -0.20400
C834        C  0.57148880  0.44604607  0.60038526    -0.07000
C835        C  0.55526710  0.42450942  0.57919191     0.13900
C836        C  0.56475222  0.41711322  0.55085136    -0.20500
C837        C  0.59008443  0.43069660  0.54364139    -0.07000
C838        C  0.60608685  0.45314082  0.56329907     0.13900
C839        C  0.63335864  0.46928576  0.55596590    -0.23800
H840        H  0.60901167  0.47697979  0.60799358     0.15100
H841        H  0.55259317  0.39978734  0.53605437     0.15200
C842        C  0.52822831  0.40853634  0.58811122    -0.23800
H843        H  0.64341568  0.47024497  0.58163294     0.05400
H844        H  0.63884777  0.48837331  0.54846607     0.08600
H845        H  0.63904710  0.46231497  0.53258643     0.08600
H846        H  0.51436063  0.40615451  0.26943243     0.08600
H847        H  0.52829572  0.39666967  0.30291751     0.08600
H848        H  0.51815746  0.39216854  0.56917942     0.05400
C849        C  0.90886443  0.46641350  0.41325906    -0.20400
C850        C  0.91630024  0.45079575  0.40276827    -0.07000
C851        C  0.90715019  0.42826402  0.42224338     0.13900
C852        C  0.88931418  0.42098884  0.45012504    -0.20500
C853        C  0.88077837  0.43590579  0.45904391    -0.07000
C854        C  0.89124092  0.45925791  0.44146616     0.13900
C855        C  0.88301126  0.47606027  0.45135339    -0.23800
H856        H  0.91600917  0.48367780  0.39810302     0.15100
H857        H  0.88082626  0.40287208  0.46325010     0.15200
C858        C  0.91484955  0.41108285  0.41179594    -0.23800
H859        H  0.89295357  0.49355482  0.43471423     0.05400
H860        H  0.88669882  0.48109678  0.48145550     0.08600
H861        H  0.86304799  0.46647561  0.44585247     0.08600
H862        H  0.93495191  0.42074108  0.41595611     0.08600
H863        H  0.91028031  0.40542753  0.38196354     0.08600
H864        H  0.90541920  0.39394980  0.42928073     0.05400
C865        C  0.90519788  0.46579911  0.59313986    -0.20400
C866        C  0.91638775  0.45292767  0.59870072    -0.07000
C867        C  0.91011069  0.43271785  0.57500891     0.13900
C868        C  0.89189064  0.42513797  0.54754311    -0.20500
C869        C  0.87980366  0.43723403  0.54332952    -0.07000
C870        C  0.88705466  0.45828633  0.56571784     0.13900
C871        C  0.87543980  0.47270417  0.56235680    -0.23800
H872        H  0.90988373  0.48119596  0.61149451     0.15100
H873        H  0.88591162  0.40867939  0.53099120     0.15200
C874        C  0.92118142  0.41793923  0.58047981    -0.23800
H875        H  0.86635118  0.47162937  0.58923174     0.05400
H876        H  0.86154535  0.46571676  0.53971089     0.08600
H877        H  0.88988743  0.49252362  0.55616360     0.08600
H878        H  0.92087416  0.41120890  0.27070338     0.08600
H879        H  0.94134908  0.43015191  0.57605841     0.08600
H880        H  0.91355673  0.40220857  0.56037277     0.05400
C881        C  0.03032984  0.48706701  0.36088483    -0.20400
C882        C  0.03712300  0.47740906  0.66471628    -0.07000
C883        C  0.01955816  0.46307023  0.63639596     0.13900
C884        C  0.99647844  0.45966929  0.63757357    -0.20500
C885        C  0.99028593  0.47004994  0.66623058    -0.07000
C886        C  0.00731363  0.48367661  0.36185076     0.13900
C887        C  0.00291391  0.49755910  0.39112826    -0.23800
H888        H  0.04409661  0.49918091  0.38139759     0.15100
H889        H  0.98298975  0.44845119  0.61618221     0.15200
C890        C  0.02448052  0.45057865  0.60543584    -0.23800
H891        H  0.01975768  0.51044164  0.40764757     0.05400
H892        H  0.98871941  0.48345799  0.74423086     0.08600
H893        H  0.99711089  0.50883652  0.37740803     0.08600
H894        H  0.02991206  0.43858756  0.61762359     0.08600
H895        H  0.03731559  0.45980518  0.25739257     0.08600
H896        H  0.00797531  0.43860992  0.58773980     0.05400
C897        C  0.12589745  0.48656668  0.59430753    -0.20400
C898        C  0.11181364  0.49647056  0.59890803    -0.07000
C899        C  0.11488979  0.51482642  0.57360344     0.13900
C900        C  0.13301205  0.52380711  0.54569661    -0.20500
C901        C  0.14813842  0.51499252  0.54260892    -0.07000
C902        C  0.14396492  0.49551089  0.56641209     0.13900
C903        C  0.15882824  0.48439164  0.56408775    -0.23800
H904        H  0.12351595  0.47247931  0.61370251     0.15100
H905        H  0.13664781  0.53913360  0.52807350     0.15200
C906        C  0.10062532  0.52650911  0.57774507    -0.23800
H907        H  0.16888390  0.48771281  0.59082068     0.05400
H908        H  0.17238380  0.49225307  0.54087454     0.08600
H909        H  0.14631233  0.46400776  0.55939282     0.08600
H910        H  0.10359331  0.53585212  0.27828814     0.08600
H911        H  0.08074275  0.51403347  0.24495204     0.08600
H912        H  0.10623741  0.54136182  0.55658147     0.05400
C913        C  0.12087772  0.48568789  0.41487276    -0.20400
C914        C  0.11089012  0.49882462  0.40300067    -0.07000
C915        C  0.11838180  0.52157707  0.42050251     0.13900
C916        C  0.13690760  0.53146346  0.44784818    -0.20500
C917        C  0.14775664  0.51890905  0.45837843    -0.07000
C918        C  0.13912139  0.49540007  0.44266673     0.13900
C919        C  0.14994027  0.48113009  0.45401890    -0.23800
H920        H  0.11516253  0.46832737  0.40114262     0.15100
H921        H  0.14385693  0.54965420  0.45967918     0.15200
C922        C  0.10804284  0.53623005  0.40859060    -0.23800
H923        H  0.14145740  0.46331489  0.43843118     0.05400
H924        H  0.14667963  0.47670012  0.48434789     0.08600
H925        H  0.17000521  0.49240117  0.44836495     0.08600
H926        H  0.08792063  0.52505703  0.41367130     0.08600
H927        H  0.11167870  0.54089342  0.37829929     0.08600
H928        H  0.11638620  0.55390747  0.42451833     0.05400
C929        C  0.37348211  0.59559333  0.57580629    -0.20400
C930        C  0.38802014  0.61993774  0.59024425    -0.07000
C931        C  0.41329594  0.63512561  0.58070489     0.13900
C932        C  0.42324253  0.62544685  0.55739952    -0.20500
C933        C  0.40864384  0.60112074  0.54333467    -0.07000
C934        C  0.38352264  0.58595769  0.55276843     0.13900
C935        C  0.36750615  0.55933479  0.53976637    -0.23800
H936        H  0.35417703  0.58380967  0.58320892     0.15100
H937        H  0.44263333  0.63678916  0.55039863     0.15200
C938        C  0.43018829  0.66102541  0.59623032    -0.23800
H939        H  0.34849301  0.54982947  0.55086703     0.05400
H940        H  0.37530122  0.54887740  0.54947867     0.08600
H941        H  0.36641950  0.55870978  0.50879803     0.08600
H942        H  0.42980184  0.66041280  0.62736360     0.08600
H943        H  0.42438826  0.67313782  0.58615135     0.08600
H944        H  0.44950467  0.66962840  0.58711512     0.05400
C945        C  0.41164320  0.62228173  0.46191640    -0.20400
C946        C  0.40443382  0.59743656  0.45983823    -0.07000
C947        C  0.38477595  0.58063068  0.43590563     0.13900
C948        C  0.37357829  0.58939100  0.41371753    -0.20500
C949        C  0.38144148  0.61441371  0.41482050    -0.07000
C950        C  0.40020810  0.63093388  0.43998123     0.13900
C951        C  0.40795989  0.65753437  0.44418870    -0.23800
H952        H  0.42679524  0.63517680  0.47997542     0.15100
H953        H  0.35906542  0.57670829  0.39450166     0.15200
C954        C  0.37506689  0.55338659  0.43292929    -0.23800
H955        H  0.42187570  0.66735321  0.46669931     0.05400
H956        H  0.39175640  0.65791142  0.45157097     0.08600
H957        H  0.41616469  0.66793958  0.41768682     0.08600
H958        H  0.35502845  0.54195761  0.43885634     0.08600
H959        H  0.38372668  0.54751231  0.45302372     0.08600
H960        H  0.37812840  0.54924706  0.40406189     0.05400
C961        C  0.25420697  0.56533639  0.54436019    -0.20400
C962        C  0.23838103  0.57333198  0.54234238    -0.07000
C963        C  0.24371730  0.59426131  0.56309061     0.13900
C964        C  0.26484065  0.60679817  0.58535708    -0.20500
C965        C  0.28070953  0.59872872  0.58825746    -0.07000
C966        C  0.27543936  0.57781615  0.56679016     0.13900
C967        C  0.29150982  0.56802473  0.56769812    -0.23800
H968        H  0.24956428  0.54883545  0.52901177     0.15100
H969        H  0.26859323  0.62278188  0.60131857     0.15200
C970        C  0.22690002  0.60317000  0.56239358    -0.23800
H971        H  0.28445643  0.55169164  0.54895469     0.05400
H972        H  0.29214857  0.56199760  0.59657105     0.08600
H973        H  0.31033987  0.58268876  0.55806931     0.08600
H974        H  0.20846659  0.58839337  0.57319202     0.08600
H975        H  0.22512279  0.60798274  0.53332715     0.08600
H976        H  0.23398517  0.61997452  0.58006151     0.05400
C977        C  0.26770827  0.61350621  0.42270216    -0.20400
C978        C  0.28102233  0.60314173  0.41398642    -0.07000
C979        C  0.27349327  0.57979363  0.42977035     0.13900
C980        C  0.25219875  0.56694225  0.45185056    -0.20500
C981        C  0.23842961  0.57685918  0.45927210    -0.07000
C982        C  0.24635300  0.60054444  0.44482370     0.13900
C983        C  0.23249262  0.61243042  0.45144355    -0.23800
H984        H  0.27334833  0.63136402  0.41083053     0.15100
H985        H  0.24587007  0.54867229  0.46272580     0.15200
C986        C  0.28788485  0.56833517  0.42413187    -0.23800
H987        H  0.24451324  0.63037509  0.46640876     0.05400
H988        H  0.22702296  0.61609398  0.42409203     0.08600
H989        H  0.21558389  0.60060670  0.46828657     0.08600
H990        H  0.30731586  0.58181055  0.43251817     0.08600
H991        H  0.28698103  0.56283993  0.39442461     0.08600
H992        H  0.28045657  0.55127599  0.44139070     0.05400
C993        C  0.40365391  0.72697452  0.42260501    -0.20400
C994        C  0.37845465  0.71104439  0.41452700    -0.07000
C995        C  0.36186645  0.71559198  0.43180133     0.13900
C996        C  0.37105214  0.73648916  0.45499681    -0.20500
C997        C  0.39629392  0.75308295  0.46125826    -0.07000
C998        C  0.41280328  0.74803756  0.44551076     0.13900
C999        C  0.44012471  0.76453975  0.45209575    -0.23800
H1000       H  0.41645458  0.72354339  0.40981247     0.15100
H1001       H  0.35850326  0.74035601  0.46752049     0.15200
C1002       C  0.33442551  0.69845553  0.42642755    -0.23800
H1003       H  0.44976159  0.77209037  0.42489345     0.05400
H1004       H  0.44636845  0.75345234  0.46514015     0.08600
H1005       H  0.44557173  0.78043157  0.47092419     0.08600
H1006       H  0.32804865  0.67910739  0.43396887     0.08600
H1007       H  0.32945743  0.69913590  0.39694890     0.08600
H1008       H  0.32437086  0.70388199  0.44443289     0.05400
C1009       C  0.36026650  0.71970603  0.58440640    -0.20400
C1010       C  0.37420771  0.70955839  0.58834621    -0.07000
C1011       C  0.39649279  0.72022087  0.56813782     0.13900
C1012       C  0.40490441  0.74157487  0.54630431    -0.20500
C1013       C  0.39157518  0.75243363  0.54400870    -0.07000
C1014       C  0.36872453  0.74108310  0.56262006     0.13900
C1015       C  0.35320869  0.75142809  0.55956771    -0.23800
H1016       H  0.34311055  0.71144400  0.59964542     0.15100
H1017       H  0.42222263  0.75015272  0.53146847     0.15200
C1018       C  0.41118795  0.70889088  0.56868345    -0.23800
H1019       H  0.33537519  0.73953006  0.57440576     0.05400
H1020       H  0.34929914  0.75259959  0.52964985     0.08600
H1021       H  0.36294906  0.77021786  0.57230872     0.08600
H1022       H  0.39932895  0.68907318  0.55995998     0.08600
H1023       H  0.41857410  0.71017906  0.59716927     0.08600
H1024       H  0.42706742  0.71861534  0.54911903     0.05400
C1025       C  0.44501450  0.54097606  0.55148400    -0.20400
C1026       C  0.45861843  0.56616229  0.54117644    -0.07000
C1027       C  0.48183934  0.58293496  0.55751580     0.13900
C1028       C  0.49030646  0.57437038  0.58559629    -0.20500
C1029       C  0.47602018  0.54947571  0.59735835    -0.07000
C1030       C  0.45348956  0.53241018  0.57948487     0.13900
C1031       C  0.43770722  0.50555940  0.59165832    -0.23800
H1032       H  0.42699270  0.52833590  0.53931811     0.15100
H1033       H  0.50754015  0.58734934  0.59968874     0.15200
C1034       C  0.49715638  0.60998224  0.54636168    -0.23800
H1035       H  0.42047745  0.49481481  0.57506888     0.05400
H1036       H  0.43267068  0.50441733  0.62168604     0.08600
H1037       H  0.44797385  0.49676274  0.58781557     0.08600
H1038       H  0.48696398  0.61867357  0.55204009     0.08600
H1039       H  0.50153588  0.61154679  0.51603199     0.08600
H1040       H  0.51475147  0.62054949  0.56209282     0.05400
C1041       C  0.48707760  0.57585408  0.40588631    -0.20400
C1042       C  0.47672152  0.55038506  0.40093240    -0.07000
C1043       C  0.45809455  0.53300948  0.42563491     0.13900
C1044       C  0.44923809  0.54152339  0.45334338    -0.20500
C1045       C  0.45865674  0.56695219  0.45674298    -0.07000
C1046       C  0.47840162  0.58438759  0.43353539     0.13900
C1047       C  0.49011793  0.61206513  0.43616653    -0.23800
H1048       H  0.50135190  0.58917204  0.38684158     0.15100
H1049       H  0.43385407  0.52817056  0.47073106     0.15200
C1050       C  0.44640420  0.50547423  0.42109562    -0.23800
H1051       H  0.51013030  0.62167983  0.44130660     0.05400
H1052       H  0.48250248  0.61725599  0.45920563     0.08600
H1053       H  0.48740842  0.61895059  0.40937141     0.08600
H1054       H  0.46052585  0.50130799  0.42458472     0.08600
H1055       H  0.43807009  0.49942738  0.39277867     0.08600
H1056       H  0.43174110  0.49446958  0.44224719     0.05400
C1057       C  0.50835804  0.49573780  0.36488803    -0.20400
C1058       C  0.50843610  0.50704278  0.66380026    -0.07000
C1059       C  0.52446430  0.50946478  0.63480718     0.13900
C1060       C  0.53527303  0.49601693  0.63712240    -0.20500
C1061       C  0.53079447  0.48019451  0.66748387    -0.07000
C1062       C  0.51980014  0.48287190  0.36751002     0.13900
C1063       C  0.51655875  0.46895289  0.40336074    -0.23800
H1064       H  0.49791019  0.49543392  0.38864999     0.15100
H1065       H  0.54780790  0.49832394  0.61517935     0.15200
C1066       C  0.53117964  0.52675830  0.60182411    -0.23800
H1067       H  0.50414508  0.46985226  0.42341843     0.05400
H1068       H  0.52386444  0.46659525  0.74704356     0.08600
H1069       H  0.50837589  0.44900082  0.39715199     0.08600
H1070       H  0.53887505  0.54598401  0.61188711     0.08600
H1071       H  0.50900327  0.51455894  0.25105399     0.08600
H1072       H  0.54523930  0.52742974  0.58357520     0.05400
C1073       C  0.41653748  0.86219554  0.59299766    -0.20400
C1074       C  0.44167168  0.87999152  0.59865578    -0.07000
C1075       C  0.45892560  0.88032823  0.57460094     0.13900
C1076       C  0.45064456  0.86166026  0.54718495    -0.20500
C1077       C  0.42554862  0.84277152  0.54331084    -0.07000
C1078       C  0.40822765  0.84367908  0.56555454     0.13900
C1079       C  0.38090024  0.82487125  0.56213980    -0.23800
H1080       H  0.40329555  0.86197417  0.61145965     0.15100
H1081       H  0.46394134  0.86075712  0.53063986     0.15200
C1082       C  0.48610336  0.89917143  0.57966718    -0.23800
H1083       H  0.37592809  0.81098502  0.53975162     0.05400
H1084       H  0.37351380  0.81476375  0.58912165     0.08600
H1085       H  0.37185927  0.83464061  0.55554167     0.08600
H1086       H  0.48911211  0.90149997  0.27130075     0.08600
H1087       H  0.49047746  0.91823176  0.57572115     0.08600
H1088       H  0.49705538  0.89642548  0.55905790     0.05400
C1089       C  0.41622820  0.86180894  0.41225601    -0.20400
C1090       C  0.44094276  0.87819570  0.40203793    -0.07000
C1091       C  0.45925134  0.87747357  0.42163675     0.13900
C1092       C  0.45216069  0.85943208  0.44966881    -0.20500
C1093       C  0.42733488  0.84229445  0.45861589    -0.07000
C1094       C  0.40919679  0.84386956  0.44035150     0.13900
C1095       C  0.38233438  0.82596521  0.44939702    -0.23800
H1096       H  0.40227016  0.86232169  0.39694476     0.15100
H1097       H  0.46600216  0.85781883  0.46307857     0.15200
C1098       C  0.48620304  0.89425100  0.41220107    -0.23800
H1099       H  0.37061042  0.82961702  0.43214844     0.05400
H1100       H  0.37911839  0.82794838  0.47927917     0.08600
H1101       H  0.37653173  0.80653602  0.44400671     0.08600
H1102       H  0.49654628  0.90517504  0.43740985     0.08600
H1103       H  0.49197407  0.90136794  0.71552864     0.08600
H1104       H  0.49306385  0.88277199  0.40342626     0.05400
C1105       C  0.50220200  0.97255021  0.63822493    -0.20400
C1106       C  0.48605458  0.95987264  0.66832526    -0.07000
C1107       C  0.47888150  0.97250997  0.36356195     0.13900
C1108       C  0.49301899  0.99861692  0.36071932    -0.20500
C1109       C  0.51502985  0.01281149  0.66472691    -0.12800
C1110       C  0.51675808  0.99869289  0.63603469     0.13900
C1111       C  0.53427770  0.01075095  0.60343185    -0.23800
H1112       H  0.50359140  0.96188278  0.61621319     0.15100
H1113       H  0.49244301  0.00932927  0.38349844     0.15200
C1114       C  0.46329043  0.96067340  0.39816030    -0.23800
H1115       H  0.53450126  0.99682492  0.58565411     0.05400
H1116       H  0.54334009  0.02168524  0.27310636     0.08600
H1117       H  0.52863658  0.02056046  0.58518140     0.08600
H1118       H  0.47000408  0.95106287  0.41448586     0.08600
H1119       H  0.44839959  0.94885689  0.72037935     0.08600
H1120       H  0.46404509  0.97469790  0.41704969     0.05400
C1121       C  0.46812597  0.93076929  0.00024838     0.80100
N1122       N  0.46420328  0.91891767  0.70045781    -0.78200
C1123       C  0.45004251  0.89366066  0.69994585     0.82500
N1124       N  0.44252194  0.88148834  0.66678385    -0.78200
C1125       C  0.44634984  0.89270336  0.96702601     0.82600
N1126       N  0.46016677  0.91802817  0.96718244    -0.79900
C1127       C  0.49936216  0.52353123  0.99815695     0.80100
N1128       N  0.49390529  0.53001983  0.96524152    -0.78200
C1129       C  0.48409111  0.54365463  0.96520203     0.82500
N1130       N  0.47974774  0.55091311  0.99814289    -0.78200
C1131       C  0.48247048  0.54204926  0.69808012     0.82600
N1132       N  0.49196874  0.52804950  0.69767380    -0.79900
C1133       C  0.41901641  0.82004287  0.81399829     0.02200
C1134       C  0.41546638  0.81928800  0.85320351     0.02100
C1135       C  0.40623516  0.79674337  0.87245810    -0.18400
C1136       C  0.39956715  0.77491053  0.85340052     0.02200
C1137       C  0.40328806  0.77580629  0.81437429     0.02100
C1138       C  0.41302281  0.79832012  0.79511459    -0.18400
H1139       H  0.41537414  0.79878999  0.76494290     0.04200
H1140       H  0.40413921  0.79615853  0.90268493     0.04200
O1141       O  0.31344924  0.63860799  0.71602818    -0.85500
O1142       O  0.35248519  0.68581780  0.69645913    -0.82500
C1143       C  0.36927114  0.69052450  0.71916974     0.98000
O1144       O  0.37985559  0.67930989  0.71649807    -0.82600
O1145       O  0.38552360  0.64131850  0.69986709    -0.85200
C1146       C  0.37100789  0.62283585  0.72044339     1.02500
O1147       O  0.34809410  0.61081081  0.71578032    -0.78000
O1148       O  0.30357057  0.60213772  0.69640222    -0.78200
C1149       C  0.30069033  0.61519563  0.71923287     1.02500
O1150       O  0.30177571  0.62720324  0.97275071    -0.85500
O1151       O  0.34327293  0.67270382  0.95320503    -0.82500
C1152       C  0.36583573  0.68924085  0.94842080     0.98000
O1153       O  0.38177399  0.68994644  0.96929607    -0.82600
O1154       O  0.38322130  0.64925767  0.95249368    -0.85200
C1155       C  0.37604422  0.62675470  0.94976096     1.02500
O1156       O  0.35967813  0.61066438  0.97162513    -0.78000
O1157       O  0.31696767  0.60676353  0.95255025    -0.78100
C1158       C  0.30103445  0.61173614  0.95020606     1.02400
Cr1159     Cr  0.32973931  0.65520538  0.00165222     1.93700
Cr1160     Cr  0.38066344  0.66352448  0.00018565     1.93200
Cr1161     Cr  0.33365757  0.61043393  0.00074274     1.39100
O1162       O  0.34812447  0.64313541  0.00094289    -1.23200
C1163       C  0.44403855  0.57235528  0.85174309     0.02200
C1164       C  0.44304056  0.57163754  0.81223006     0.02100
C1165       C  0.42931992  0.57905607  0.79364513    -0.18400
C1166       C  0.41682906  0.58738471  0.81361288     0.02200
C1167       C  0.41839931  0.58866217  0.85309851     0.02100
C1168       C  0.43165755  0.58080568  0.87169340    -0.18400
H1169       H  0.43262646  0.58158138  0.90208309     0.04200
H1170       H  0.42866133  0.57870289  0.76323682     0.04200
C1171       C  0.21539589  0.56121112  0.81504099     0.02200
C1172       C  0.21511754  0.55929696  0.85443479     0.02100
C1173       C  0.19267824  0.54388198  0.87303761    -0.18400
C1174       C  0.17037861  0.53033126  0.85329835     0.02200
C1175       C  0.17064343  0.53253293  0.81386121     0.02100
C1176       C  0.19318348  0.54786648  0.79519957    -0.18400
H1177       H  0.19344869  0.54936403  0.76487324     0.04200
H1178       H  0.19255708  0.54256665  0.90338226     0.04200
C1179       C  0.06198519  0.48194985  0.00037648     0.80100
N1180       N  0.07390490  0.48616350  0.69889383    -0.78200
C1181       C  0.09716013  0.49174877  0.69967658     0.82500
N1182       N  0.10912161  0.49504481  0.00098244    -0.78200
C1183       C  0.09748962  0.49138053  0.96779020     0.82600
N1184       N  0.07397118  0.48495437  0.96763459    -0.79900
C1185       C  0.96532906  0.46519128  0.66618361     0.80100
N1186       N  0.95301982  0.45999064  0.96871072    -0.78200
C1187       C  0.93022031  0.45560647  0.96817048     0.82500
N1188       N  0.91877702  0.45346414  0.00101767    -0.78200
C1189       C  0.93061115  0.45714897  0.69950251     0.82600
N1190       N  0.95344926  0.46184734  0.69913445    -0.79900
C1191       C  0.54751842  0.47092565  0.00092580     0.80100
N1192       N  0.55417864  0.46567495  0.96789646    -0.78200
C1193       C  0.56523028  0.45316710  0.96793970     0.82500
N1194       N  0.56937519  0.44572048  0.00087125    -0.78200
C1195       C  0.56210028  0.45037952  0.70125800     0.82600
N1196       N  0.54960652  0.46135548  0.70102672    -0.79900
C1197       C  0.85817960  0.42210641  0.81384014     0.02200
C1198       C  0.85804564  0.42329315  0.85334170     0.02100
C1199       C  0.83541510  0.41188958  0.87217585    -0.18400
C1200       C  0.81315653  0.39998358  0.85248239     0.02200
C1201       C  0.81336413  0.39901610  0.81295891     0.02100
C1202       C  0.83585032  0.40980403  0.79416971    -0.18400
H1203       H  0.83602765  0.40912067  0.76377391     0.04200
H1204       H  0.83513285  0.41251087  0.90256492     0.04200
C1205       C  0.59937547  0.41831738  0.85344953     0.02200
C1206       C  0.59633921  0.41542238  0.81423043     0.02100
C1207       C  0.60614172  0.40410186  0.79458315    -0.18400
C1208       C  0.61754376  0.39422997  0.81344130     0.02200
C1209       C  0.61879168  0.39535258  0.85297627     0.02100
C1210       C  0.61034989  0.40797228  0.87235533    -0.18400
H1211       H  0.61210091  0.40952789  0.90264058     0.04200
H1212       H  0.60489285  0.40298664  0.76423000     0.04200
O1213       O  0.71266701  0.33039182  0.71295460    -0.85500
O1214       O  0.66967571  0.28609369  0.69469844    -0.82500
C1215       C  0.65389260  0.28394415  0.71752998     0.98000
O1216       O  0.64620587  0.29785346  0.71468425    -0.82600
O1217       O  0.64549548  0.33871917  0.69572199    -0.85200
C1218       C  0.66047574  0.35590707  0.71771655     1.02500
O1219       O  0.68310854  0.36484381  0.71518177    -0.78000
O1220       O  0.72598372  0.36862697  0.69695237    -0.78200
C1221       C  0.72769395  0.35355165  0.71699116     1.02500
O1222       O  0.72481189  0.34261998  0.96944769    -0.85500
O1223       O  0.67996962  0.30064473  0.94924431    -0.82500
C1224       C  0.65704664  0.28512352  0.94684867     0.98000
O1225       O  0.64305022  0.28637007  0.96967152    -0.82600
O1226       O  0.64726594  0.32995582  0.95148113    -0.85200
C1227       C  0.65734318  0.35309722  0.94780855     1.02500
O1228       O  0.67431464  0.36841067  0.96971237    -0.78000
O1229       O  0.71528376  0.36865577  0.95278516    -0.78100
C1230       C  0.72830170  0.36011909  0.94877253     1.02400
Cr1231     Cr  0.69539177  0.31661829  0.99797608     1.93700
Cr1232     Cr  0.64799165  0.31493703  0.99936711     1.93200
Cr1233     Cr  0.69797888  0.36546974  0.00045189     1.39100
O1234       O  0.68054149  0.33246056  0.99928493    -1.23200
C1235       C  0.60869785  0.19737576  0.85225455     0.02200
C1236       C  0.60644845  0.19742415  0.81303598     0.02100
C1237       C  0.59371806  0.17483449  0.79348913    -0.18400
C1238       C  0.58326813  0.15200200  0.81226526     0.02200
C1239       C  0.58650370  0.15199811  0.85142974     0.02100
C1240       C  0.59858489  0.17468711  0.87105884    -0.18400
H1241       H  0.60019984  0.17470386  0.90133397     0.04200
H1242       H  0.59227733  0.17505655  0.76320481     0.04200
C1243       C  0.52771122  0.03937743  0.99703951     0.80100
N1244       N  0.53536958  0.05248497  0.96436723    -0.78200
C1245       C  0.54877990  0.07771276  0.96464616     0.82500
N1246       N  0.55421759  0.09000851  0.99765870    -0.78200
C1247       C  0.54755708  0.07867335  0.69698822     0.82600
N1248       N  0.53509309  0.05343730  0.69721646    -0.79900
C1249       C  0.58271699  0.10686927  0.92262090    -0.20400
C1250       C  0.55740309  0.09213670  0.92963567    -0.07000
C1251       C  0.54133944  0.09426221  0.90633544     0.13900
C1252       C  0.55120896  0.11275759  0.87847129    -0.20500
C1253       C  0.57670676  0.12891591  0.87349724    -0.07000
C1254       C  0.59258380  0.12509647  0.89445807     0.13900
C1255       C  0.61994584  0.14052401  0.88766408    -0.23800
H1256       H  0.59487615  0.10482732  0.94035497     0.15100
H1257       H  0.53911091  0.11568308  0.86230131     0.15200
C1258       C  0.51396475  0.07807039  0.91240472    -0.23800
H1259       H  0.62937681  0.13427733  0.90547170     0.05400
H1260       H  0.62803985  0.16038809  0.89415915     0.08600
H1261       H  0.62369839  0.13879643  0.85788425     0.08600
H1262       H  0.50948754  0.08097608  0.94112334     0.08600
H1263       H  0.50723883  0.05820127  0.90894524     0.08600
H1264       H  0.50408072  0.08238688  0.89201040     0.05400
C1265       C  0.54066504  0.10351295  0.74101127    -0.20400
C1266       C  0.55370111  0.09296684  0.73209401    -0.07000
C1267       C  0.57444755  0.09921312  0.75355570     0.13900
C1268       C  0.58262575  0.11713054  0.78211110    -0.20500
C1269       C  0.57058777  0.12900653  0.78924966    -0.07000
C1270       C  0.54881105  0.12142913  0.76945798     0.13900
C1271       C  0.53452346  0.13271224  0.77757020    -0.23800
H1272       H  0.52469622  0.09854691  0.72445267     0.15100
H1273       H  0.59936224  0.12306762  0.79721021     0.15200
C1274       C  0.58871160  0.08802725  0.74485181    -0.23800
H1275       H  0.51758412  0.12406339  0.76030688     0.05400
H1276       H  0.54584374  0.15292286  0.77129782     0.08600
H1277       H  0.52900838  0.12989645  0.80751780     0.08600
H1278       H  0.59578481  0.09272303  0.71565154     0.08600
H1279       H  0.57655607  0.06747221  0.74791137     0.08600
H1280       H  0.60461040  0.09509991  0.76403975     0.05400
C1281       C  0.61996318  0.24941445  0.91638883    -0.20400
C1282       C  0.64579851  0.26420816  0.91928896    -0.07000
C1283       C  0.65941577  0.25728790  0.89822551     0.13900
C1284       C  0.64677098  0.23555597  0.87622886    -0.20500
C1285       C  0.62103073  0.22071038  0.87434781    -0.07000
C1286       C  0.60746211  0.22776792  0.89463651     0.13900
C1287       C  0.57975166  0.21270194  0.89472221    -0.23800
H1288       H  0.60913837  0.25437544  0.93196216     0.15100
H1289       H  0.65701301  0.22974647  0.86104270     0.15200
C1290       C  0.68709017  0.27208743  0.89921837    -0.23800
H1291       H  0.57126067  0.19599506  0.87657009     0.05400
H1292       H  0.57347839  0.22447464  0.88475038     0.08600
H1293       H  0.57290279  0.20641461  0.92374346     0.08600
H1294       H  0.69345479  0.27252821  0.92822505     0.08600
H1295       H  0.69491388  0.29134208  0.88911430     0.08600
H1296       H  0.69439653  0.26381730  0.88091325     0.05400
C1297       C  0.61809463  0.25217091  0.75523484    -0.20400
C1298       C  0.64290088  0.26351582  0.74542100    -0.07000
C1299       C  0.65597460  0.25387584  0.76027477     0.13900
C1300       C  0.64358010  0.23258845  0.78293193    -0.20500
C1301       C  0.61867065  0.22085342  0.79145002    -0.07000
C1302       C  0.60574746  0.23075486  0.77775459     0.13900
C1303       C  0.57886215  0.21842647  0.78608886    -0.23800
H1304       H  0.60801081  0.25943741  0.74393421     0.15100
H1305       H  0.65323091  0.22464310  0.79341784     0.15200
C1306       C  0.68300783  0.26596558  0.75306338    -0.23800
H1307       H  0.57158239  0.22860321  0.77310536     0.05400
H1308       H  0.57603556  0.21790095  0.81675918     0.08600
H1309       H  0.56818788  0.19914602  0.77496921     0.08600
H1310       H  0.69335885  0.28588400  0.76123447     0.08600
H1311       H  0.68629145  0.26425430  0.72306439     0.08600
H1312       H  0.69040834  0.25706127  0.76962475     0.05400
C1313       C  0.62550280  0.35073095  0.75352660    -0.20400
C1314       C  0.65077348  0.36577604  0.74503415    -0.07000
C1315       C  0.66513692  0.39021294  0.76009038     0.13900
C1316       C  0.65377492  0.39876879  0.78266932    -0.20500
C1317       C  0.62859974  0.38360818  0.79097976    -0.07000
C1318       C  0.61424615  0.35941954  0.77581081     0.13900
C1319       C  0.58695517  0.34287528  0.78233841    -0.23800
H1320       H  0.61426012  0.33208483  0.74204537     0.15100
H1321       H  0.66450424  0.41765470  0.79334588     0.15200
C1322       C  0.69213281  0.40781051  0.75151603    -0.23800
H1323       H  0.57847839  0.32464535  0.76795193     0.05400
H1324       H  0.57806989  0.35198693  0.77146757     0.08600
H1325       H  0.58322492  0.33921994  0.81267257     0.08600
H1326       H  0.69492635  0.41074247  0.72075488     0.08600
H1327       H  0.70235066  0.40009407  0.76248298     0.08600
H1328       H  0.70008139  0.42630866  0.76477761     0.05400
C1329       C  0.62244320  0.35158858  0.91899524    -0.20400
C1330       C  0.64784112  0.36250245  0.91999446    -0.07000
C1331       C  0.66361724  0.38354697  0.89734268     0.13900
C1332       C  0.65360631  0.39357402  0.87508298    -0.20500
C1333       C  0.62828906  0.38311464  0.87498335    -0.07000
C1334       C  0.61249891  0.36196351  0.89743343     0.13900
C1335       C  0.58530957  0.35084125  0.90001361    -0.23800
H1336       H  0.61047177  0.33569815  0.93684839     0.15100
H1337       H  0.66569763  0.41018537  0.85871906     0.15200
C1338       C  0.69093870  0.39537101  0.89627136    -0.23800
H1339       H  0.57568453  0.33380905  0.91771051     0.05400
H1340       H  0.57682858  0.34574468  0.87184687     0.08600
H1341       H  0.58218655  0.36442755  0.91276875     0.08600
H1342       H  0.69464687  0.38118703  0.88858964     0.08600
H1343       H  0.69914524  0.40343850  0.92404076     0.08600
H1344       H  0.70020505  0.41065305  0.87529588     0.05400
C1345       C  0.78394411  0.40511858  0.88827820    -0.20400
C1346       C  0.79010649  0.38913238  0.87416877    -0.07000
C1347       C  0.77557184  0.36367433  0.88370612     0.13900
C1348       C  0.75479552  0.35466844  0.90639745    -0.20500
C1349       C  0.74849855  0.37059597  0.92078019    -0.07000
C1350       C  0.76327912  0.39621822  0.91134090     0.13900
C1351       C  0.75826449  0.41454192  0.92684540    -0.23800
H1352       H  0.79578282  0.42483037  0.88196425     0.15100
H1353       H  0.74376659  0.33509312  0.91387615     0.15200
C1354       C  0.78267057  0.34625172  0.87173773    -0.23800
H1355       H  0.77234484  0.43389769  0.91773021     0.05400
H1356       H  0.75834703  0.41410850  0.95797653     0.08600
H1357       H  0.74020593  0.40983203  0.91670904     0.08600
H1358       H  0.80131499  0.35313079  0.88240073     0.08600
H1359       H  0.78265058  0.34509840  0.84080504     0.08600
H1360       H  0.76969976  0.32711598  0.88276052     0.05400
C1361       C  0.78246017  0.36446111  0.77246495    -0.20400
C1362       C  0.79052230  0.38704722  0.79036734    -0.07000
C1363       C  0.77773044  0.39843631  0.78427856     0.13900
C1364       C  0.75663112  0.38639831  0.76170325    -0.20500
C1365       C  0.74832794  0.36361853  0.74401985    -0.07000
C1366       C  0.76153447  0.35253657  0.74945240     0.13900
C1367       C  0.75457737  0.32890192  0.72965444    -0.23800
H1368       H  0.79292520  0.35632990  0.77604875     0.15100
H1369       H  0.74697068  0.39529834  0.75699476     0.15200
C1370       C  0.78648713  0.42382697  0.79935788    -0.23800
H1371       H  0.76774476  0.32373737  0.73571726     0.05400
H1372       H  0.75444081  0.33135662  0.69884706     0.08600
H1373       H  0.73617550  0.31325499  0.73909428     0.08600
H1374       H  0.80405078  0.43264017  0.81488787     0.08600
H1375       H  0.77231887  0.42232150  0.81834676     0.08600
H1376       H  0.78948474  0.43638738  0.77570204     0.05400
C1377       C  0.55384696  0.41760507  0.74570683    -0.20400
C1378       C  0.56779978  0.44293507  0.73647428    -0.07000
C1379       C  0.58912488  0.45977625  0.75721499     0.13900
C1380       C  0.59705218  0.45055764  0.78518632    -0.20500
C1381       C  0.58417960  0.42490335  0.79221742    -0.07000
C1382       C  0.56178371  0.40833623  0.77342085     0.13900
C1383       C  0.54671160  0.38077837  0.78152503    -0.23800
H1384       H  0.53742551  0.40485186  0.72965588     0.15100
H1385       H  0.61417569  0.46315402  0.79980826     0.15200
C1386       C  0.60417177  0.48718684  0.74831906    -0.23800
H1387       H  0.52944032  0.37072148  0.76495206     0.05400
H1388       H  0.54171410  0.37744171  0.81166409     0.08600
H1389       H  0.55727295  0.37274586  0.77432109     0.08600
H1390       H  0.59270385  0.49467899  0.75195419     0.08600
H1391       H  0.61081135  0.49022013  0.71889216     0.08600
H1392       H  0.62040486  0.49775100  0.76702683     0.05400
C1393       C  0.59846510  0.46035751  0.92598308    -0.20400
C1394       C  0.57320565  0.44768821  0.93291509    -0.07000
C1395       C  0.55644114  0.42755384  0.90975365     0.13900
C1396       C  0.56542978  0.41950888  0.88157565    -0.20500
C1397       C  0.59078130  0.43119993  0.87618208    -0.07000
C1398       C  0.60746795  0.45259086  0.89756234     0.13900
C1399       C  0.63488509  0.46722101  0.89172476    -0.23800
H1400       H  0.61131029  0.47588538  0.94376940     0.15100
H1401       H  0.55267058  0.40305781  0.86543625     0.15200
C1402       C  0.52917456  0.41365226  0.91632021    -0.23800
H1403       H  0.64384689  0.46629709  0.91746289     0.05400
H1404       H  0.64198068  0.48698525  0.88589531     0.08600
H1405       H  0.64021098  0.46033491  0.86774277     0.08600
H1406       H  0.52026605  0.41966158  0.58486103     0.08600
H1407       H  0.52544325  0.40163098  0.61741997     0.08600
H1408       H  0.51862456  0.39818727  0.89598327     0.05400
C1409       C  0.90810414  0.46551529  0.74567995    -0.20400
C1410       C  0.91659710  0.45089025  0.73460650    -0.07000
C1411       C  0.90836538  0.42840508  0.75364762     0.13900
C1412       C  0.89040676  0.42016220  0.78165280    -0.20500
C1413       C  0.88102336  0.43419905  0.79148950    -0.07000
C1414       C  0.89052099  0.45750175  0.77424486     0.13900
C1415       C  0.88131086  0.47335235  0.78492650    -0.23800
H1416       H  0.91449475  0.48272954  0.73085332     0.15100
H1417       H  0.88260796  0.40202365  0.79434539     0.15200
C1418       C  0.91724180  0.41228583  0.74270822    -0.23800
H1419       H  0.89060357  0.49096770  0.76859466     0.05400
H1420       H  0.88495818  0.47818754  0.81511335     0.08600
H1421       H  0.86125614  0.46308903  0.77964824     0.08600
H1422       H  0.93740859  0.42270374  0.74696860     0.08600
H1423       H  0.91291151  0.40681816  0.71277492     0.08600
H1424       H  0.90842274  0.39502548  0.75984715     0.05400
C1425       C  0.90404451  0.46298712  0.92884617    -0.20400
C1426       C  0.91669557  0.45147257  0.93277494    -0.07000
C1427       C  0.91280617  0.43342400  0.90618403     0.13900
C1428       C  0.89470067  0.42577967  0.87844841    -0.20500
C1429       C  0.88083719  0.43611861  0.87624646    -0.07000
C1430       C  0.88644654  0.45581472  0.90068568     0.13900
C1431       C  0.87362964  0.46910617  0.89866522    -0.23800
H1432       H  0.90723727  0.47708192  0.94889411     0.15100
H1433       H  0.89019280  0.41046510  0.86015449     0.15200
C1434       C  0.92635230  0.42091182  0.90850101    -0.23800
H1435       H  0.86332946  0.46599950  0.92508885     0.05400
H1436       H  0.86061303  0.46284931  0.87486802     0.08600
H1437       H  0.88751328  0.48939017  0.89505956     0.08600
H1438       H  0.91730469  0.41013351  0.60932797     0.08600
H1439       H  0.94636790  0.43499238  0.90503579     0.08600
H1440       H  0.92045288  0.40670612  0.88616745     0.05400
C1441       C  0.03094322  0.48792061  0.69316509    -0.20400
C1442       C  0.03668803  0.47617013  0.00023491    -0.07000
C1443       C  0.01891011  0.46082934  0.97280147     0.13900
C1444       C  0.99553117  0.45667870  0.97435070    -0.20500
C1445       C  0.98924980  0.46721078  0.00263560    -0.07000
C1446       C  0.00793752  0.48457496  0.69430433     0.13900
C1447       C  0.00321206  0.49741814  0.72496726    -0.23800
H1448       H  0.04438985  0.49920601  0.71455578     0.15100
H1449       H  0.98193595  0.44488768  0.95342424     0.15200
C1450       C  0.02397894  0.44809640  0.94244579    -0.23800
H1451       H  0.01986835  0.50971389  0.74220600     0.05400
H1452       H  0.98757343  0.48069812  0.08032667     0.08600
H1453       H  0.99756352  0.50915929  0.71249222     0.08600
H1454       H  0.03021765  0.43692523  0.95518664     0.08600
H1455       H  0.03922096  0.46477676  0.58670798     0.08600
H1456       H  0.00731403  0.43529603  0.92552641     0.05400
C1457       C  0.12647780  0.48782913  0.92890146    -0.20400
C1458       C  0.11155207  0.49683859  0.93260191    -0.07000
C1459       C  0.11325325  0.51373393  0.90558176     0.13900
C1460       C  0.13140417  0.52286015  0.87762265    -0.20500
C1461       C  0.14747016  0.51511965  0.87555241    -0.07000
C1462       C  0.14414135  0.49645195  0.90042478     0.13900
C1463       C  0.15956206  0.48594071  0.89857364    -0.23800
H1464       H  0.12496972  0.47461067  0.94927589     0.15100
H1465       H  0.13426848  0.53752603  0.85919329     0.15200
C1466       C  0.09736905  0.52369945  0.90770666    -0.23800
H1467       H  0.17035228  0.49046169  0.92482963     0.05400
H1468       H  0.17246403  0.49322594  0.87449855     0.08600
H1469       H  0.14737053  0.46538945  0.89551394     0.08600
H1470       H  0.10380848  0.53499887  0.60600129     0.08600
H1471       H  0.08072148  0.51216587  0.57385003     0.08600
H1472       H  0.10185605  0.53743711  0.88511510     0.05400
C1473       C  0.12253866  0.48671370  0.74505315    -0.20400
C1474       C  0.11150532  0.49915006  0.73474644    -0.07000
C1475       C  0.11805413  0.52115552  0.75382470     0.13900
C1476       C  0.13644964  0.53090647  0.78138067    -0.20500
C1477       C  0.14808112  0.51893821  0.79072844    -0.07000
C1478       C  0.14068888  0.49630943  0.77300861     0.13900
C1479       C  0.15275839  0.48293729  0.78244756    -0.23800
H1480       H  0.11770061  0.47003184  0.72998874     0.15100
H1481       H  0.14271740  0.54864724  0.79427805     0.15200
C1482       C  0.10694318  0.53532477  0.74337189    -0.23800
H1483       H  0.14491830  0.46557584  0.76586140     0.05400
H1484       H  0.14997072  0.47787380  0.81262377     0.08600
H1485       H  0.17275637  0.49513963  0.77643836     0.08600
H1486       H  0.08681949  0.52350155  0.74837122     0.08600
H1487       H  0.11054945  0.54075263  0.71332751     0.08600
H1488       H  0.11473849  0.55254792  0.76029695     0.05400
C1489       C  0.37229772  0.59377023  0.90915652    -0.20400
C1490       C  0.38698897  0.61851653  0.92207766    -0.07000
C1491       C  0.41204147  0.63354870  0.91124082     0.13900
C1492       C  0.42164230  0.62332621  0.88834713    -0.20500
C1493       C  0.40689027  0.59864259  0.87576138    -0.07000
C1494       C  0.38198026  0.58364297  0.88636862     0.13900
C1495       C  0.36583396  0.55674683  0.87469725    -0.23800
H1496       H  0.35316152  0.58208308  0.91752118     0.15100
H1497       H  0.44088580  0.63455290  0.88045242     0.15200
C1498       C  0.42908691  0.65991772  0.92490270    -0.23800
H1499       H  0.34696087  0.54746988  0.88628496     0.05400
H1500       H  0.37378247  0.54653357  0.88490607     0.08600
H1501       H  0.36440916  0.55547114  0.84374618     0.08600
H1502       H  0.42944833  0.66025422  0.95603938     0.08600
H1503       H  0.42285316  0.67155854  0.91430851     0.08600
H1504       H  0.44820187  0.66840702  0.91484183     0.05400
C1505       C  0.41151144  0.62079701  0.79393091    -0.20400
C1506       C  0.40317636  0.59559239  0.79237035    -0.07000
C1507       C  0.38301704  0.57913746  0.76900768     0.13900
C1508       C  0.37228343  0.58850650  0.74705957    -0.20500
C1509       C  0.38116082  0.61383764  0.74772597    -0.07000
C1510       C  0.40059116  0.63009691  0.77217617     0.13900
C1511       C  0.40957072  0.65709212  0.77590505    -0.23800
H1512       H  0.42711172  0.63342927  0.81147044     0.15100
H1513       H  0.35730049  0.57601446  0.72836081     0.15200
C1514       C  0.37235499  0.55166288  0.76630292    -0.23800
H1515       H  0.42387132  0.66666524  0.79796455     0.05400
H1516       H  0.39399872  0.65845087  0.78367573     0.08600
H1517       H  0.41772816  0.66707624  0.74909762     0.08600
H1518       H  0.35243363  0.54087748  0.77301020     0.08600
H1519       H  0.38093191  0.54544210  0.78593896     0.08600
H1520       H  0.37468724  0.54708782  0.73729137     0.05400
C1521       C  0.25392853  0.56591569  0.87821989    -0.20400
C1522       C  0.23785959  0.57364159  0.87708391    -0.07000
C1523       C  0.24299028  0.59415647  0.89881848     0.13900
C1524       C  0.26412860  0.60651380  0.92112477    -0.20500
C1525       C  0.28033000  0.59879583  0.92287961    -0.07000
C1526       C  0.27525958  0.57832475  0.90043103     0.13900
C1527       C  0.29172733  0.56899423  0.89986095    -0.23800
H1528       H  0.24943763  0.54968631  0.86225420     0.15100
H1529       H  0.26770017  0.62214878  0.93786054     0.15200
C1530       C  0.22607826  0.60295775  0.89888982    -0.23800
H1531       H  0.28485437  0.55306576  0.88032865     0.05400
H1532       H  0.29262770  0.56251380  0.92824925     0.08600
H1533       H  0.31042775  0.58406431  0.89032949     0.08600
H1534       H  0.20768989  0.58804990  0.90963263     0.08600
H1535       H  0.22422113  0.60805373  0.87004123     0.08600
H1536       H  0.23314130  0.61956739  0.91700839     0.05400
C1537       C  0.26773662  0.61314630  0.75682253    -0.20400
C1538       C  0.28079430  0.60258127  0.74760688    -0.07000
C1539       C  0.27331079  0.57926856  0.76347061     0.13900
C1540       C  0.25213737  0.56653106  0.78585462    -0.20500
C1541       C  0.23860225  0.57665688  0.79373343    -0.07000
C1542       C  0.24662321  0.60039339  0.77944279     0.13900
C1543       C  0.23304059  0.61251114  0.78667199    -0.23800
H1544       H  0.27338771  0.63101970  0.74500026     0.15100
H1545       H  0.24571053  0.54819723  0.79655390     0.15200
C1546       C  0.28763454  0.56775686  0.75761215    -0.23800
H1547       H  0.24535997  0.63049645  0.80138136     0.05400
H1548       H  0.22727683  0.61612350  0.75955808     0.08600
H1549       H  0.21634786  0.60088293  0.80404262     0.08600
H1550       H  0.30711601  0.58123442  0.76576003     0.08600
H1551       H  0.28656804  0.56218929  0.72790774     0.08600
H1552       H  0.28027797  0.55074393  0.77495442     0.05400
C1553       C  0.40268042  0.72674535  0.75489442    -0.20400
C1554       C  0.37746639  0.71063773  0.74704051    -0.07000
C1555       C  0.36080129  0.71522777  0.76379267     0.13900
C1556       C  0.36991716  0.73634512  0.78630920    -0.20500
C1557       C  0.39512805  0.75298915  0.79264614    -0.07000
C1558       C  0.41175063  0.74797304  0.77733455     0.13900
C1559       C  0.43906080  0.76462438  0.78395193    -0.23800
H1560       H  0.41552249  0.72328006  0.74235702     0.15100
H1561       H  0.35731583  0.74029276  0.79831061     0.15200
C1562       C  0.33334992  0.69788747  0.75864813    -0.23800
H1563       H  0.44871447  0.77198609  0.75671388     0.05400
H1564       H  0.44536791  0.75371110  0.79742627     0.08600
H1565       H  0.44442147  0.78064885  0.80242068     0.08600
H1566       H  0.32711854  0.67865425  0.76668641     0.08600
H1567       H  0.32825223  0.69822048  0.72911904     0.08600
H1568       H  0.32325784  0.70338551  0.77641058     0.05400
C1569       C  0.35852924  0.71797272  0.91459623    -0.20400
C1570       C  0.37365591  0.70930929  0.92038551    -0.07000
C1571       C  0.39646561  0.72110532  0.90123299     0.13900
C1572       C  0.40413636  0.74210553  0.87890534    -0.20500
C1573       C  0.38963698  0.75157974  0.87508387    -0.07000
C1574       C  0.36628527  0.73902327  0.89234718     0.13900
C1575       C  0.34956020  0.74783356  0.88756842    -0.23800
H1576       H  0.34093944  0.70884758  0.92879660     0.15100
H1577       H  0.42183274  0.75157083  0.86497534     0.15200
C1578       C  0.41257707  0.71140557  0.90334357    -0.23800
H1579       H  0.33159107  0.73523012  0.90171593     0.05400
H1580       H  0.34599279  0.74857152  0.85736358     0.08600
H1581       H  0.35816020  0.76660407  0.89996910     0.08600
H1582       H  0.40179910  0.69149260  0.89502096     0.08600
H1583       H  0.41984397  0.71350229  0.93215185     0.08600
H1584       H  0.42862379  0.72170941  0.88417631     0.05400
C1585       C  0.44661987  0.53952123  0.88183884    -0.20400
C1586       C  0.45793071  0.56484179  0.87368214    -0.07000
C1587       C  0.47991406  0.58280033  0.89218100     0.13900
C1588       C  0.48916122  0.57513258  0.92036073    -0.20500
C1589       C  0.47705750  0.54994498  0.93003638    -0.07000
C1590       C  0.45605115  0.53181922  0.90971454     0.13900
C1591       C  0.44269690  0.50454599  0.91896584    -0.23800
H1592       H  0.42948717  0.52588012  0.86811557     0.15100
H1593       H  0.50526871  0.58893083  0.93611454     0.15200
C1594       C  0.49310186  0.61010728  0.88313216    -0.23800
H1595       H  0.42609790  0.49302800  0.90125750     0.05400
H1596       H  0.43682947  0.50129606  0.94879923     0.08600
H1597       H  0.45503637  0.49827894  0.91389348     0.08600
H1598       H  0.48103815  0.61666494  0.88890205     0.08600
H1599       H  0.49843629  0.61319483  0.85310981     0.08600
H1600       H  0.51006473  0.62156793  0.90011016     0.05400
C1601       C  0.48632616  0.57450193  0.73921283    -0.20400
C1602       C  0.47614600  0.54914593  0.73328559    -0.07000
C1603       C  0.45703920  0.53128810  0.75691204     0.13900
C1604       C  0.44758990  0.53923004  0.78453477    -0.20500
C1605       C  0.45694760  0.56457444  0.78905942    -0.07000
C1606       C  0.47707437  0.58246962  0.76683924     0.13900
C1607       C  0.48859043  0.61006585  0.77043675    -0.23800
H1608       H  0.50091154  0.58819041  0.72090842     0.15100
H1609       H  0.43182591  0.52551545  0.80095954     0.15200
C1610       C  0.44548037  0.50385300  0.75127196    -0.23800
H1611       H  0.50848061  0.61966935  0.77662709     0.05400
H1612       H  0.48036831  0.61478312  0.79315443     0.08600
H1613       H  0.48644673  0.61739191  0.74364414     0.08600
H1614       H  0.45953279  0.49963016  0.75519019     0.08600
H1615       H  0.43776407  0.49835557  0.72251933     0.08600
H1616       H  0.43037294  0.49242797  0.77160316     0.05400
C1617       C  0.50356867  0.49085862  0.69384623    -0.20400
C1618       C  0.51128671  0.50962479  0.99818366    -0.07000
C1619       C  0.50643123  0.49163943  0.97057651     0.13900
C1620       C  0.51864704  0.47953789  0.97233320    -0.20500
C1621       C  0.53548561  0.48463213  0.00094017    -0.07000
C1622       C  0.51440379  0.47738512  0.69612732     0.13900
C1623       C  0.50762753  0.45989690  0.72882812    -0.23800
H1624       H  0.49110682  0.48868284  0.71582981     0.15100
H1625       H  0.51473954  0.46565923  0.95139098     0.15200
C1626       C  0.48783788  0.48428002  0.93984290    -0.23800
H1627       H  0.49311390  0.45869713  0.74659769     0.05400
H1628       H  0.57724780  0.51599082  0.04617143     0.08600
H1629       H  0.50051606  0.44086390  0.71844740     0.08600
H1630       H  0.49415572  0.50016822  0.92048063     0.08600
H1631       H  0.51475746  0.52023494  0.58412424     0.08600
H1632       H  0.48515574  0.46862273  0.92275374     0.05400
C1633       C  0.41318079  0.85914249  0.92831188    -0.20400
C1634       C  0.43814611  0.87825597  0.93178966    -0.07000
C1635       C  0.45500228  0.88028609  0.90495231     0.13900
C1636       C  0.44675466  0.86176924  0.87730004    -0.20500
C1637       C  0.42201542  0.84156560  0.87558854    -0.07000
C1638       C  0.40481931  0.84107622  0.90016774     0.13900
C1639       C  0.37760539  0.82139776  0.89815334    -0.23800
H1640       H  0.40017817  0.85778074  0.94860796     0.15100
H1641       H  0.45998931  0.86213717  0.85872149     0.15200
C1642       C  0.48191759  0.90086864  0.90706043    -0.23800
H1643       H  0.37249626  0.80863559  0.87401744     0.05400
H1644       H  0.37144700  0.81026817  0.92441624     0.08600
H1645       H  0.36757011  0.83048921  0.89494908     0.08600
H1646       H  0.49173281  0.89752750  0.60827654     0.08600
H1647       H  0.48437253  0.91916364  0.90392568     0.08600
H1648       H  0.49260726  0.89927289  0.88448452     0.05400
C1649       C  0.41981432  0.86620300  0.74798433    -0.20400
C1650       C  0.44403551  0.87907882  0.73465540    -0.07000
C1651       C  0.46077346  0.87452998  0.75090329     0.13900
C1652       C  0.45250124  0.85630849  0.77890957    -0.20500
C1653       C  0.42800875  0.84265440  0.79110735    -0.07000
C1654       C  0.41159258  0.84801458  0.77611154     0.13900
C1655       C  0.38513854  0.83369420  0.78843660    -0.23800
H1656       H  0.40700765  0.86958057  0.73508778     0.15100
H1657       H  0.46494641  0.85184503  0.79001519     0.15200
C1658       C  0.48704536  0.88747326  0.73794401    -0.23800
H1659       H  0.37465585  0.83980482  0.77320705     0.05400
H1660       H  0.38422843  0.83672336  0.81880862     0.08600
H1661       H  0.37617132  0.81350783  0.78308710     0.08600
H1662       H  0.49956524  0.89730700  0.76201105     0.08600
H1663       H  0.49254987  0.90512792  0.05179098     0.08600
H1664       H  0.49020903  0.87346991  0.72700603     0.05400
C1665       C  0.49805379  0.97110225  0.96889349    -0.20400
C1666       C  0.48327114  0.95854128  0.00030395    -0.07000
C1667       C  0.48467336  0.97399683  0.69736367     0.13900
C1668       C  0.49911490  0.00011747  0.69507152    -0.20500
C1669       C  0.51267900  0.01153133  0.99680265    -0.12800
C1670       C  0.51271826  0.99723738  0.96660913     0.13900
C1671       C  0.52840588  0.00898737  0.93205940    -0.23800
H1672       H  0.49833921  0.96034507  0.94590660     0.15100
H1673       H  0.49763499  0.01072458  0.71707804     0.15200
C1674       C  0.46753473  0.96194419  0.73038817    -0.23800
H1675       H  0.52715630  0.99485881  0.91281483     0.05400
H1676       H  0.55325278  0.02404282  0.61392474     0.08600
H1677       H  0.52216903  0.01914670  0.91604934     0.08600
H1678       H  0.47323577  0.95188714  0.74791744     0.08600
H1679       H  0.44759892  0.94787613  0.05584670     0.08600
H1680       H  0.46773149  0.97588521  0.74874082     0.05400
loop_ 
_geom_bond_atom_site_label_1 
_geom_bond_atom_site_label_2 
_geom_bond_distance 
_geom_bond_site_symmetry_2 
_ccdc_geom_bond_type 
C1            N6   1.365       .  A
C1          N562   1.362       .  A
C1          C546   1.493       .  S
N2            C3   1.356       .  A
N2         C1121   1.361       .  A
C3            N4   1.353   1_554  A
C3          C530   1.471       .  S
N4         C1125   1.355       .  A
C5            N6   1.359       .  A
C5          N564   1.354       .  A
C5          C514   1.477       .  S
C7            N8   1.360       .  A
C7          N572   1.366       .  A
C7          C498   1.495       .  S
N8            C9   1.354       .  A
C9           N10   1.352       .  A
C9          C469   1.470       .  S
N10         C571   1.353       .  A
C11          N12   1.361       .  A
C11        N1130   1.355   1_554  A
C11         C482   1.479       .  S
N12        C1127   1.366   1_554  A
C13         C533   1.480       .  S
C13          C14   1.413       .  A
C13          C18   1.406       .  A
C14         C517   1.490       .  S
C14          C15   1.406       .  A
C15          C16   1.402       .  A
C15          H20   1.084       .  S
C16         C453   1.483       .  S
C16          C17   1.409       .  A
C17         C437   1.484       .  S
C17          C18   1.402       .  A
C18          H19   1.085       .  S
O21          C29   1.263       .  A
O21       Cr1159   1.989       .  S
O22          C23   1.262       .  A
O22       Cr1159   1.996       .  S
C23         C434   1.485       .  S
C23          O24   1.261       .  A
O24       Cr1160   1.988       .  S
O25          C26   1.265       .  A
O25       Cr1160   2.002       .  S
C26         C389   1.472       .  S
C26          O27   1.261       .  A
O27       Cr1161   1.971       .  S
O28          C29   1.262       .  A
O28       Cr1161   1.998       .  S
C29         C418   1.486       .  S
O30          C38   1.264       .  A
O30         Cr39   1.994       .  S
O31          C32   1.263       .  A
O31         Cr39   1.981       .  S
C32         C450   1.482       .  S
C32          O33   1.265       .  A
O33         Cr40   2.001       .  S
O34          C35   1.262       .  A
O34         Cr40   1.991       .  S
C35         C370   1.490       .  S
C35          O36   1.263       .  A
O36         Cr41   1.996       .  S
O37          C38   1.260       .  A
O37         Cr41   1.982       .  S
C38         C405   1.490       .  S
Cr39        O581   1.987       .  S
Cr39        O582   1.994       .  S
Cr39         O42   1.773       .  S
Cr40        O584   1.992       .  S
Cr40        O585   1.998       .  S
Cr40         O42   1.774       .  S
Cr41        O587   1.974       .  S
Cr41        O588   1.999       .  S
Cr41         O42   1.773       .  S
C43         C466   1.479       .  S
C43          C44   1.412       .  A
C43          C48   1.406       .  A
C44         C485   1.487       .  S
C44          C45   1.404       .  A
C45          C46   1.405       .  A
C45          H50   1.085       .  S
C46         C386   1.479       .  S
C46          C47   1.411       .  A
C47         C373   1.487       .  S
C47          C48   1.399       .  A
C48          H49   1.085       .  S
C51         C421   1.482       .  S
C51          C52   1.409       .  A
C51          C56   1.400       .  A
C52         C402   1.478       .  S
C52          C53   1.401       .  A
C53          C54   1.403       .  A
C53          H58   1.085       .  S
C54         C341   1.482       .  S
C54          C55   1.412       .  A
C55         C357   1.480       .  S
C55          C56   1.405       .  A
C56          H57   1.085       .  S
C59          N64   1.359       .  A
C59         N620   1.363       .  A
C59         C322   1.485       .  S
N60          C61   1.357       .  A
N60        C1179   1.362       .  A
C61        N1182   1.356       .  A
C61         C354   1.477       .  S
N62          C63   1.355       .  A
N62         C621   1.355       .  A
C63          N64   1.357       .  A
C63         C338   1.476       .  S
C65          N70   1.359       .  A
C65        N1186   1.364   1_554  A
C65        C1445   1.484       .  S
N66          C67   1.362       .  A
N66         C625   1.365       .  A
C67          N68   1.355       .  A
C67         C306   1.480       .  S
N68         C629   1.353       .  A
C69          N70   1.354       .  A
C69        N1188   1.353       .  A
C69         C290   1.469       .  S
C71          N72   1.366       .  A
C71         N636   1.361       .  A
C71         C501   1.495       .  S
N72          C73   1.358       .  A
C73          N74   1.353       .  A
C73         C274   1.472       .  S
N74         C635   1.353       .  A
C75          N76   1.355       .  A
C75        N1194   1.354       .  A
C75         C258   1.467       .  S
N76        C1191   1.360       .  A
C77         C293   1.475       .  S
C77          C78   1.412       .  A
C77          C82   1.403       .  A
C78         C309   1.486       .  S
C78          C79   1.404       .  A
C79          C80   1.400       .  A
C79          H84   1.085       .  S
C80         C226   1.476       .  S
C80          C81   1.409       .  A
C81         C242   1.482       .  S
C81          C82   1.399       .  A
C82          H83   1.085       .  S
C85         C277   1.482       .  S
C85          C86   1.410       .  A
C85          C90   1.401       .  A
C86         C261   1.477       .  S
C86          C87   1.405       .  A
C87          C88   1.401       .  A
C87          H92   1.085       .  S
C88         C197   1.487       .  S
C88          C89   1.413       .  A
C89         C213   1.480       .  S
C89          C90   1.403       .  A
C90          H91   1.085       .  S
O93         C101   1.261       .  A
O93       Cr1231   1.979   1_554  S
O94          C95   1.262       .  A
O94       Cr1231   1.993   1_554  S
C95         C178   1.485       .  S
C95          O96   1.263       .  A
O96       Cr1232   1.988   1_554  S
O97          C98   1.263       .  A
O97       Cr1232   1.993   1_554  S
C98         C194   1.495       .  S
C98          O99   1.262       .  A
O99       Cr1233   1.994       .  S
O100        C101   1.265       .  A
O100      Cr1233   1.998       .  S
C101        C245   1.480       .  S
O102        C110   1.262       .  A
O102       Cr111   1.991       .  S
O103        C104   1.260       .  A
O103       Cr111   1.983       .  S
C104        C162   1.497       .  S
C104        O105   1.267       .  A
O105       Cr112   2.007       .  S
O106        C107   1.260       .  A
O106       Cr112   1.976       .  S
C107        C210   1.475       .  S
C107        O108   1.264       .  A
O108       Cr113   1.999       .  S
O109        C110   1.259       .  A
O109       Cr113   1.980       .  S
C110        C229   1.478       .  S
Cr111       O653   1.979       .  S
Cr111       O654   1.995       .  S
Cr111       O114   1.769       .  S
Cr112       O656   1.983       .  S
Cr112       O657   2.004       .  S
Cr112       O114   1.772       .  S
Cr113       O659   1.980       .  S
Cr113       O660   2.007       .  S
Cr113       O114   1.772       .  S
C115        C165   1.486       .  S
C115        C116   1.409       .  A
C115        C120   1.402       .  A
C116        C181   1.477       .  S
C116        C117   1.402       .  A
C117        C118   1.405       .  A
C117        H122   1.085       .  S
C118        C149   1.486       .  S
C118        C119   1.412       .  A
C119        C133   1.480       .  S
C119        C120   1.405       .  A
C120        H121   1.085       .  S
C123        N124   1.362       .  A
C123        N688   1.366       .  A
C123        C549   1.495       .  S
N124        C125   1.356       .  A
C125        N126   1.353       .  A
C125        C130   1.470       .  S
N126        C687   1.354       .  A
C127        N128   1.360       .  A
C127       N1246   1.354   1_554  A
C127        C146   1.474       .  S
N128       C1243   1.366   1_554  A
C129        C130   1.400       .  A
C129        C134   1.402       .  A
C129        H136   1.084       .  S
C130        C131   1.410       .  A
C131        C132   1.405       .  A
C131        C138   1.505       .  S
C132        C133   1.403       .  A
C132        H137   1.082       .  S
C133        C134   1.413       .  A
C134        C135   1.508       .  S
C135        H139   1.111       .  S
C135        H140   1.109       .  S
C135        H141   1.109       .  S
C138        H142   1.110       .  S
C138        H143   1.110       .  S
C138        H144   1.111       .  S
C145        C146   1.401       .  A
C145        C150   1.404       .  A
C145        H152   1.084       .  S
C146        C147   1.410       .  A
C147        C148   1.407       .  A
C147        C154   1.505       .  S
C148        C149   1.404       .  A
C148        H153   1.082       .  S
C149        C150   1.415       .  A
C150        C151   1.508       .  S
C151        H155   1.111       .  S
C151        H156   1.108       .  S
C151        H157   1.109       .  S
C154        H158   1.110       .  S
C154        H159   1.110       .  S
C154        H160   1.111       .  S
C161        C162   1.409       .  A
C161        C166   1.400       .  A
C161        H168   1.084       .  S
C162        C163   1.422       .  A
C163        C164   1.408       .  A
C163        C170   1.508       .  S
C164        C165   1.403       .  A
C164        H169   1.083       .  S
C165        C166   1.412       .  A
C166        C167   1.509       .  S
C167        H171   1.107       .  S
C167        H172   1.110       .  S
C167        H173   1.110       .  S
C170        H174   1.110       .  S
C170        H175   1.111       .  S
C170        H176   1.111       .  S
C177        C178   1.407       .  A
C177        C182   1.405       .  A
C177        H184   1.084       .  S
C178        C179   1.422       .  A
C179        C180   1.400       .  A
C179        C186   1.509       .  S
C180        C181   1.396       .  A
C180        H185   1.084       .  S
C181        C182   1.409       .  A
C182        C183   1.505       .  S
C183        H187   1.111       .  S
C183        H188   1.108       .  S
C183        H189   1.110       .  S
C186        H190   1.110       .  S
C186        H191   1.109       .  S
C186        H192   1.111       .  S
C193        C194   1.410       .  A
C193        C198   1.402       .  A
C193        H200   1.084       .  S
C194        C195   1.419       .  A
C195        C196   1.409       .  A
C195        C202   1.507       .  S
C196        C197   1.403       .  A
C196        H201   1.083       .  S
C197        C198   1.408       .  A
C198        C199   1.506       .  S
C199        H203   1.111       .  S
C199        H204   1.110       .  S
C199        H205   1.105       .  S
C202        H206   1.110       .  S
C202        H207   1.110       .  S
C202        H208   1.111       .  S
C209        C210   1.403       .  A
C209        C214   1.402       .  A
C209        H216   1.084       .  S
C210        C211   1.414       .  A
C211        C212   1.400       .  A
C211        C218   1.507       .  S
C212        C213   1.401       .  A
C212        H217   1.082       .  S
C213        C214   1.414       .  A
C214        C215   1.509       .  S
C215        H219   1.111       .  S
C215        H220   1.106       .  S
C215        H221   1.109       .  S
C218        H222   1.110       .  S
C218        H223   1.109       .  S
C218        H224   1.111       .  S
C225        C226   1.400       .  A
C225        C230   1.402       .  A
C225        H232   1.083       .  S
C226        C227   1.409       .  A
C227        C228   1.400       .  A
C227        C234   1.507       .  S
C228        C229   1.406       .  A
C228        H233   1.084       .  S
C229        C230   1.416       .  A
C230        C231   1.507       .  S
C231        H235   1.111       .  S
C231        H236   1.110       .  S
C231        H237   1.108       .  S
C234        H238   1.110       .  S
C234        H239   1.105       .  S
C234        H240   1.111       .  S
C241        C242   1.402       .  A
C241        C246   1.403       .  A
C241        H248   1.084       .  S
C242        C243   1.414       .  A
C243        C244   1.401       .  A
C243        C250   1.507       .  S
C244        C245   1.405       .  A
C244        H249   1.085       .  S
C245        C246   1.416       .  A
C246        C247   1.507       .  S
C247        H251   1.111       .  S
C247        H252   1.111       .  S
C247        H253   1.108       .  S
C250        H254   1.108       .  S
C250        H255   1.111       .  S
C250        H256   1.110       .  S
C257        C258   1.401       .  A
C257        C262   1.404       .  A
C257        H264   1.084       .  S
C258        C259   1.409       .  A
C259        C260   1.401       .  A
C259        C266   1.506       .  S
C260        C261   1.401       .  A
C260        H265   1.082       .  S
C261        C262   1.412       .  A
C262        C263   1.506       .  S
C263        H267   1.111       .  S
C263        H268   1.108       .  S
C263        H269   1.110       .  S
C266        H270   1.110       .  S
C266        H271   1.110       .  S
C266        H272   1.111       .  S
C273        C274   1.401       .  A
C273        C278   1.404       .  A
C273        H280   1.085       .  S
C274        C275   1.410       .  A
C275        C276   1.405       .  A
C275        C282   1.506       .  S
C276        C277   1.403       .  A
C276        H281   1.083       .  S
C277        C278   1.416       .  A
C278        C279   1.507       .  S
C279        H283   1.110       .  S
C279        H284   1.110       .  S
C279        H285   1.107       .  S
C282        H288   1.111       .  S
C282        H846   1.110       .  S
C282        H847   1.110       .  S
H286       C1402   1.110       .  S
H287       C1402   1.110       .  S
C289        C290   1.402       .  A
C289        C294   1.403       .  A
C289        H296   1.084       .  S
C290        C291   1.412       .  A
C291        C292   1.401       .  A
C291        C298   1.507       .  S
C292        C293   1.401       .  A
C292        H297   1.084       .  S
C293        C294   1.411       .  A
C294        C295   1.506       .  S
C295        H299   1.111       .  S
C295        H300   1.110       .  S
C295        H301   1.110       .  S
C298        H302   1.110       .  S
C298        H303   1.110       .  S
C298        H304   1.111       .  S
C305        C306   1.403       .  A
C305        C310   1.401       .  A
C305        H312   1.085       .  S
C306        C307   1.414       .  A
C307        C308   1.407       .  A
C307        C314   1.507       .  S
C308        C309   1.404       .  A
C308        H313   1.082       .  S
C309        C310   1.415       .  A
C310        C311   1.508       .  S
C311        H315   1.111       .  S
C311        H316   1.108       .  S
C311        H317   1.110       .  S
C314        H319   1.110       .  S
C314        H320   1.111       .  S
C314        H878   1.110       .  S
H318       C1434   1.110       .  S
C321        C326   1.402       .  A
C321       C1442   1.404       .  A
C321        H328   1.083       .  S
C322        C323   1.418       .  A
C322        C881   1.403       .  A
C323        C324   1.406   1_455  A
C323        C330   1.508       .  S
C324        C325   1.404       .  A
C324        H329   1.084       .  S
C325        C625   1.484       .  S
C325        C886   1.418   1_655  A
C326       C1445   1.418   1_455  A
C326        C327   1.509       .  S
C327        H331   1.111       .  S
C327        H333   1.110   1_455  S
C327       H1452   1.109   1_455  S
C330        H334   1.110       .  S
C330        H336   1.111       .  S
C330        H895   1.109       .  S
H332        C887   1.109   1_655  S
H335       C1450   1.109       .  S
C337        C338   1.402       .  A
C337        C342   1.402       .  A
C337        H344   1.085       .  S
C338        C339   1.414       .  A
C339        C340   1.404       .  A
C339        C346   1.508       .  S
C340        C341   1.403       .  A
C340        H345   1.082       .  S
C341        C342   1.415       .  A
C342        C343   1.507       .  S
C343        H347   1.110       .  S
C343        H348   1.108       .  S
C343        H349   1.110       .  S
C346        H352   1.111       .  S
C346        H910   1.111       .  S
C346        H911   1.110       .  S
H350       C1466   1.110       .  S
H351       C1466   1.110       .  S
C353        C354   1.402       .  A
C353        C358   1.402       .  A
C353        H360   1.084       .  S
C354        C355   1.415       .  A
C355        C356   1.404       .  A
C355        C362   1.507       .  S
C356        C357   1.402       .  A
C356        H361   1.082       .  S
C357        C358   1.412       .  A
C358        C359   1.507       .  S
C359        H363   1.111       .  S
C359        H364   1.109       .  S
C359        H365   1.109       .  S
C362        H366   1.110       .  S
C362        H367   1.110       .  S
C362        H368   1.111       .  S
C369        C370   1.408       .  A
C369        C374   1.404       .  A
C369        H376   1.084       .  S
C370        C371   1.418       .  A
C371        C372   1.407       .  A
C371        C378   1.506       .  S
C372        C373   1.403       .  A
C372        H377   1.084       .  S
C373        C374   1.410       .  A
C374        C375   1.505       .  S
C375        H379   1.111       .  S
C375        H380   1.110       .  S
C375        H381   1.105       .  S
C378        H382   1.111       .  S
C378        H383   1.108       .  S
C378        H384   1.111       .  S
C385        C386   1.403       .  A
C385        C390   1.402       .  A
C385        H392   1.084       .  S
C386        C387   1.415       .  A
C387        C388   1.399       .  A
C387        C394   1.509       .  S
C388        C389   1.401       .  A
C388        H393   1.085       .  S
C389        C390   1.413       .  A
C390        C391   1.508       .  S
C391        H395   1.111       .  S
C391        H396   1.110       .  S
C391        H397   1.109       .  S
C394        H398   1.111       .  S
C394        H399   1.108       .  S
C394        H400   1.110       .  S
C401        C402   1.401       .  A
C401        C406   1.406       .  A
C401        H408   1.083       .  S
C402        C403   1.407       .  A
C403        C404   1.398       .  A
C403        C410   1.508       .  S
C404        C405   1.410       .  A
C404        H409   1.083       .  S
C405        C406   1.421       .  A
C406        C407   1.508       .  S
C407        H411   1.111       .  S
C407        H412   1.110       .  S
C407        H413   1.110       .  S
C410        H414   1.109       .  S
C410        H415   1.107       .  S
C410        H416   1.111       .  S
C417        C418   1.405       .  A
C417        C422   1.404       .  A
C417        H424   1.084       .  S
C418        C419   1.420       .  A
C419        C420   1.403       .  A
C419        C426   1.509       .  S
C420        C421   1.400       .  A
C420        H425   1.084       .  S
C421        C422   1.413       .  A
C422        C423   1.506       .  S
C423        H427   1.110       .  S
C423        H428   1.110       .  S
C423        H429   1.108       .  S
C426        H430   1.110       .  S
C426        H431   1.109       .  S
C426        H432   1.111       .  S
C433        C434   1.407       .  A
C433        C438   1.407       .  A
C433        H440   1.084       .  S
C434        C435   1.418       .  A
C435        C436   1.401       .  A
C435        C442   1.509       .  S
C436        C437   1.399       .  A
C436        H441   1.082       .  S
C437        C438   1.414       .  A
C438        C439   1.507       .  S
C439        H443   1.110       .  S
C439        H444   1.110       .  S
C439        H445   1.108       .  S
C442        H446   1.110       .  S
C442        H447   1.109       .  S
C442        H448   1.111       .  S
C449        C450   1.403       .  A
C449        C454   1.402       .  A
C449        H456   1.084       .  S
C450        C451   1.418       .  A
C451        C452   1.404       .  A
C451        C458   1.507       .  S
C452        C453   1.401       .  A
C452        H457   1.084       .  S
C453        C454   1.413       .  A
C454        C455   1.506       .  S
C455        H459   1.111       .  S
C455        H460   1.109       .  S
C455        H461   1.106       .  S
C458        H462   1.110       .  S
C458        H463   1.109       .  S
C458        H464   1.111       .  S
C465        C466   1.403       .  A
C465        C470   1.404       .  A
C465        H472   1.082       .  S
C466        C467   1.413       .  A
C467        C468   1.401       .  A
C467        C474   1.508       .  S
C468        C469   1.401       .  A
C468        H473   1.084       .  S
C469        C470   1.411       .  A
C470        C471   1.506       .  S
C471        H475   1.111       .  S
C471        H476   1.110       .  S
C471        H477   1.110       .  S
C474        H478   1.109       .  S
C474        H479   1.109       .  S
C474        H480   1.111       .  S
C481        C482   1.402       .  A
C481        C486   1.404       .  A
C481        H488   1.085       .  S
C482        C483   1.412       .  A
C483        C484   1.407       .  A
C483        C490   1.506       .  S
C484        C485   1.404       .  A
C484        H489   1.083       .  S
C485        C486   1.415       .  A
C486        C487   1.507       .  S
C487        H491   1.110       .  S
C487        H492   1.108       .  S
C487        H493   1.110       .  S
C490        H494   1.110       .  S
C490        H495   1.110       .  S
C490        H496   1.111       .  S
C497        C502   1.405       .  A
C497       C1618   1.405   1_554  A
C497        H504   1.084       .  S
C498        C499   1.422       .  A
C498       C1057   1.406       .  A
C499        C500   1.404       .  A
C499        C506   1.510       .  S
C500        C501   1.405       .  A
C500        H505   1.084       .  S
C501       C1062   1.421       .  A
C502       C1621   1.417       .  A
C502        C503   1.509       .  S
C503        H507   1.111       .  S
C503        H509   1.109       .  S
C503       H1628   1.111       .  S
C506        H510   1.110       .  S
C506        H512   1.111       .  S
C506       H1071   1.110       .  S
H508       C1063   1.110       .  S
H511       C1626   1.110       .  S
C513        C514   1.400       .  A
C513        C518   1.401       .  A
C513        H520   1.085       .  S
C514        C515   1.413       .  A
C515        C516   1.408       .  A
C515        C522   1.506       .  S
C516        C517   1.405       .  A
C516        H521   1.083       .  S
C517        C518   1.417       .  A
C518        C519   1.507       .  S
C519        H523   1.108       .  S
C519        H524   1.110       .  S
C519        H525   1.110       .  S
C522        H527   1.110       .  S
C522        H528   1.111       .  S
C522       H1086   1.110       .  S
H526       C1642   1.110       .  S
C529        C530   1.401       .  A
C529        C534   1.403       .  A
C529        H536   1.084       .  S
C530        C531   1.415       .  A
C531        C532   1.404       .  A
C531        C538   1.508       .  S
C532        C533   1.402       .  A
C532        H537   1.084       .  S
C533        C534   1.411       .  A
C534        C535   1.506       .  S
C535        H539   1.111       .  S
C535        H540   1.108       .  S
C535        H541   1.110       .  S
C538        H542   1.110       .  S
C538        H544   1.110       .  S
C538       H1663   1.107       .  S
H543       C1098   1.107       .  S
C545        C546   1.405       .  A
C545        C550   1.405       .  A
C545        H552   1.084       .  S
C546       C1107   1.419       .  A
C547        C548   1.405       .  A
C547       C1666   1.419       .  A
C547        C554   1.509       .  S
C548       C1669   1.406   1_564  A
C548        H553   1.083   1_565  S
C549        C550   1.421   1_545  A
C549       C1108   1.407   1_545  A
C550        C551   1.509   1_565  S
C551        H555   1.111   1_545  S
C551        H557   1.110       .  S
C551       H1116   1.110       .  S
C554        H558   1.109       .  S
C554        H560   1.111       .  S
C554       H1679   1.110       .  S
H556       C1671   1.110       .  S
H559       C1114   1.110       .  S
C561       N1122   1.361       .  A
C561        N566   1.366       .  A
C561       C1106   1.491       .  S
N562        C563   1.357       .  A
C563        N564   1.354       .  A
C563       C1090   1.472       .  S
C565       N1124   1.354       .  A
C565        N566   1.360       .  A
C565       C1074   1.477       .  S
C567        N568   1.360       .  A
C567       N1132   1.366       .  A
C567       C1058   1.490       .  S
N568        C569   1.354       .  A
C569        N570   1.351       .  A
C569       C1029   1.466       .  S
N570       C1131   1.354       .  A
C571        N572   1.360       .  A
C571       C1042   1.475       .  S
C573       C1093   1.480       .  S
C573        C574   1.412       .  A
C573        C578   1.405       .  A
C574       C1077   1.486       .  S
C574        C575   1.406       .  A
C575        C576   1.403       .  A
C575        H580   1.084       .  S
C576       C1013   1.483       .  S
C576        C577   1.410       .  A
C577        C997   1.484       .  S
C577        C578   1.402       .  A
C578        H579   1.085       .  S
O581        C589   1.263       .  A
O582        C583   1.261       .  A
C583        C994   1.486       .  S
C583        O584   1.262       .  A
O585        C586   1.264       .  A
C586        C949   1.471       .  S
C586        O587   1.260       .  A
O588        C589   1.263       .  A
C589        C978   1.484       .  S
O590        C598   1.265       .  A
O590       Cr599   1.997       .  S
O591        C592   1.262       .  A
O591       Cr599   1.980       .  S
C592       C1010   1.480       .  S
C592        O593   1.266       .  A
O593       Cr600   2.003       .  S
O594        C595   1.260       .  A
O594       Cr600   1.984       .  S
C595        C930   1.484       .  S
C595        O596   1.263       .  A
O596       Cr601   1.995       .  S
O597        C598   1.259       .  A
O597       Cr601   1.980       .  S
C598        C965   1.491       .  S
Cr599      O1141   1.985       .  S
Cr599      O1142   1.992       .  S
Cr599       O602   1.771       .  S
Cr600      O1144   1.987       .  S
Cr600      O1145   2.002       .  S
Cr600       O602   1.773       .  S
Cr601      O1147   1.972       .  S
Cr601      O1148   2.000       .  S
Cr601       O602   1.771       .  S
C603       C1026   1.475       .  S
C603        C604   1.408       .  A
C603        C608   1.403       .  A
C604       C1045   1.482       .  S
C604        C605   1.403       .  A
C605        C606   1.404       .  A
C605        H610   1.085       .  S
C606        C946   1.483       .  S
C606        C607   1.412       .  A
C607        C933   1.481       .  S
C607        C608   1.400       .  A
C608        H609   1.085       .  S
C611        C981   1.481       .  S
C611        C612   1.409       .  A
C611        C616   1.402       .  A
C612        C962   1.479       .  S
C612        C613   1.399       .  A
C613        C614   1.403       .  A
C613        H618   1.085       .  S
C614        C901   1.481       .  S
C614        C615   1.411       .  A
C615        C917   1.480       .  S
C615        C616   1.405       .  A
C616        H617   1.085       .  S
C619       N1180   1.364       .  A
C619        N624   1.359       .  A
C619        C882   1.489       .  S
N620        C621   1.358       .  A
C621        C914   1.473       .  S
N622       C1181   1.354       .  A
N622        C623   1.355       .  A
C623        N624   1.356       .  A
C623        C898   1.475       .  S
C625        N630   1.358       .  A
N626       C1185   1.365       .  A
N626        C627   1.361       .  A
C627        N628   1.355       .  A
C627        C866   1.477       .  S
N628       C1189   1.353       .  A
C629        N630   1.353       .  A
C629        C850   1.466       .  S
C631        N632   1.365       .  A
C631       N1196   1.361       .  A
C631       C1061   1.491       .  S
N632        C633   1.358       .  A
C633        N634   1.353       .  A
C633        C834   1.473       .  S
N634       C1195   1.354       .  A
C635        N636   1.356       .  A
C635        C818   1.470       .  S
C637        C853   1.474       .  S
C637        C638   1.409       .  A
C637        C642   1.403       .  A
C638        C869   1.483       .  S
C638        C639   1.402       .  A
C639        C640   1.402       .  A
C639        H644   1.085       .  S
C640        C786   1.475       .  S
C640        C641   1.410       .  A
C641        C802   1.482       .  S
C641        C642   1.399       .  A
C642        H643   1.085       .  S
C645        C837   1.481       .  S
C645        C646   1.409       .  A
C645        C650   1.403       .  A
C646        C821   1.479       .  S
C646        C647   1.404       .  A
C647        C648   1.400       .  A
C647        H652   1.085       .  S
C648        C757   1.485       .  S
C648        C649   1.413       .  A
C649        C773   1.482       .  S
C649        C650   1.403       .  A
C650        H651   1.084       .  S
O653        C661   1.262       .  A
O654        C655   1.262       .  A
C655        C738   1.482       .  S
C655        O656   1.261       .  A
O657        C658   1.266       .  A
C658        C754   1.486       .  S
C658        O659   1.260       .  A
O660        C661   1.267       .  A
C661        C805   1.485       .  S
O662        C670   1.264       .  A
O662       Cr671   1.996       .  S
O663        C664   1.260       .  A
O663       Cr671   1.984       .  S
C664        C722   1.497       .  S
C664        O665   1.266       .  A
O665       Cr672   2.004       .  S
O666        C667   1.262       .  A
O666       Cr672   1.979       .  S
C667        C770   1.474       .  S
C667        O668   1.265       .  A
O668       Cr673   2.001       .  S
O669        C670   1.260       .  A
O669       Cr673   1.979       .  S
C670        C789   1.484       .  S
Cr671      O1213   1.979       .  S
Cr671      O1214   1.997       .  S
Cr671       O674   1.772       .  S
Cr672      O1216   1.979       .  S
Cr672      O1217   1.998       .  S
Cr672       O674   1.773       .  S
Cr673      O1219   1.986       .  S
Cr673      O1220   2.005       .  S
Cr673       O674   1.772       .  S
C675        C725   1.484       .  S
C675        C676   1.408       .  A
C675        C680   1.399       .  A
C676        C741   1.478       .  S
C676        C677   1.402       .  A
C677        C678   1.406       .  A
C677        H682   1.085       .  S
C678        C709   1.487       .  S
C678        C679   1.413       .  A
C679        C693   1.480       .  S
C679        C680   1.405       .  A
C680        H681   1.085       .  S
C683        N684   1.361       .  A
C683       N1248   1.365       .  A
C683       C1109   1.492       .  S
N684        C685   1.356       .  A
C685        N686   1.355       .  A
C685        C690   1.470       .  S
N686       C1247   1.355       .  A
C687        N688   1.359       .  A
C687        C706   1.473       .  S
C689        C690   1.400       .  A
C689        C694   1.402       .  A
C689        H696   1.084       .  S
C690        C691   1.411       .  A
C691        C692   1.405       .  A
C691        C698   1.505       .  S
C692        C693   1.403       .  A
C692        H697   1.084       .  S
C693        C694   1.414       .  A
C694        C695   1.508       .  S
C695        H699   1.111       .  S
C695        H700   1.109       .  S
C695        H701   1.109       .  S
C698        H702   1.110       .  S
C698        H703   1.110       .  S
C698        H704   1.111       .  S
C705        C706   1.400       .  A
C705        C710   1.403       .  A
C705        H712   1.084       .  S
C706        C707   1.411       .  A
C707        C708   1.408       .  A
C707        C714   1.505       .  S
C708        C709   1.404       .  A
C708        H713   1.082       .  S
C709        C710   1.415       .  A
C710        C711   1.507       .  S
C711        H715   1.111       .  S
C711        H716   1.106       .  S
C711        H717   1.110       .  S
C714        H718   1.110       .  S
C714        H719   1.110       .  S
C714        H720   1.111       .  S
C721        C722   1.410       .  A
C721        C726   1.400       .  A
C721        H728   1.084       .  S
C722        C723   1.422       .  A
C723        C724   1.407       .  A
C723        C730   1.508       .  S
C724        C725   1.402       .  A
C724        H729   1.082       .  S
C725        C726   1.411       .  A
C726        C727   1.509       .  S
C727        H731   1.108       .  S
C727        H732   1.110       .  S
C727        H733   1.110       .  S
C730        H734   1.110       .  S
C730        H735   1.110       .  S
C730        H736   1.111       .  S
C737        C738   1.406       .  A
C737        C742   1.404       .  A
C737        H744   1.084       .  S
C738        C739   1.419       .  A
C739        C740   1.400       .  A
C739        C746   1.508       .  S
C740        C741   1.398       .  A
C740        H745   1.084       .  S
C741        C742   1.410       .  A
C742        C743   1.505       .  S
C743        H747   1.111       .  S
C743        H748   1.108       .  S
C743        H749   1.108       .  S
C746        H750   1.110       .  S
C746        H751   1.109       .  S
C746        H752   1.111       .  S
C753        C754   1.406       .  A
C753        C758   1.403       .  A
C753        H760   1.084       .  S
C754        C755   1.418       .  A
C755        C756   1.406       .  A
C755        C762   1.507       .  S
C756        C757   1.402       .  A
C756        H761   1.084       .  S
C757        C758   1.410       .  A
C758        C759   1.504       .  S
C759        H763   1.111       .  S
C759        H764   1.110       .  S
C759        H765   1.105       .  S
C762        H766   1.111       .  S
C762        H767   1.110       .  S
C762        H768   1.111       .  S
C769        C770   1.401       .  A
C769        C774   1.403       .  A
C769        H776   1.084       .  S
C770        C771   1.413       .  A
C771        C772   1.401       .  A
C771        C778   1.504       .  S
C772        C773   1.401       .  A
C772        H777   1.084       .  S
C773        C774   1.417       .  A
C774        C775   1.511       .  S
C775        H779   1.111       .  S
C775        H780   1.108       .  S
C775        H781   1.108       .  S
C778        H782   1.111       .  S
C778        H783   1.108       .  S
C778        H784   1.111       .  S
C785        C786   1.398       .  A
C785        C790   1.402       .  A
C785        H792   1.084       .  S
C786        C787   1.409       .  A
C787        C788   1.401       .  A
C787        C794   1.506       .  S
C788        C789   1.407       .  A
C788        H793   1.084       .  S
C789        C790   1.418       .  A
C790        C791   1.506       .  S
C791        H795   1.111       .  S
C791        H796   1.110       .  S
C791        H797   1.105       .  S
C794        H798   1.110       .  S
C794        H799   1.106       .  S
C794        H800   1.111       .  S
C801        C802   1.401       .  A
C801        C806   1.404       .  A
C801        H808   1.084       .  S
C802        C803   1.413       .  A
C803        C804   1.404       .  A
C803        C810   1.507       .  S
C804        C805   1.406       .  A
C804        H809   1.085       .  S
C805        C806   1.417       .  A
C806        C807   1.508       .  S
C807        H811   1.111       .  S
C807        H812   1.111       .  S
C807        H813   1.108       .  S
C810        H814   1.108       .  S
C810        H815   1.110       .  S
C810        H816   1.111       .  S
C817        C818   1.399       .  A
C817        C822   1.400       .  A
C817        H824   1.084       .  S
C818        C819   1.412       .  A
C819        C820   1.407       .  A
C819        C826   1.505       .  S
C820        C821   1.404       .  A
C820        H825   1.084       .  S
C821        C822   1.413       .  A
C822        C823   1.508       .  S
C823        H827   1.111       .  S
C823        H828   1.110       .  S
C823        H829   1.109       .  S
C826        H830   1.110       .  S
C826        H831   1.110       .  S
C826        H832   1.111       .  S
C833        C834   1.401       .  A
C833        C838   1.402       .  A
C833        H840   1.085       .  S
C834        C835   1.411       .  A
C835        C836   1.406       .  A
C835        C842   1.506       .  S
C836        C837   1.403       .  A
C836        H841   1.083       .  S
C837        C838   1.415       .  A
C838        C839   1.507       .  S
C839        H843   1.110       .  S
C839        H844   1.110       .  S
C839        H845   1.109       .  S
C842       H1406   1.110       .  S
C842       H1407   1.111       .  S
C842        H848   1.111       .  S
C849        C850   1.401       .  A
C849        C854   1.402       .  A
C849        H856   1.084       .  S
C850        C851   1.411       .  A
C851        C852   1.401       .  A
C851        C858   1.507       .  S
C852        C853   1.401       .  A
C852        H857   1.084       .  S
C853        C854   1.411       .  A
C854        C855   1.506       .  S
C855        H859   1.111       .  S
C855        H860   1.109       .  S
C855        H861   1.110       .  S
C858        H862   1.110       .  S
C858        H863   1.111       .  S
C858        H864   1.111       .  S
C865        C866   1.403       .  A
C865        C870   1.402       .  A
C865        H872   1.085       .  S
C866        C867   1.413       .  A
C867        C868   1.406       .  A
C867        C874   1.507       .  S
C868        C869   1.403       .  A
C868        H873   1.083       .  S
C869        C870   1.414       .  A
C870        C871   1.508       .  S
C871        H875   1.110       .  S
C871        H876   1.108       .  S
C871        H877   1.110       .  S
C874       H1438   1.111       .  S
C874        H879   1.110       .  S
C874        H880   1.111       .  S
C881        C886   1.402       .  A
C881        H888   1.084       .  S
C882       C1441   1.404       .  A
C882        C883   1.419       .  A
C883        C884   1.406   1_455  A
C883        C890   1.508       .  S
C884        C885   1.404       .  A
C884        H889   1.084       .  S
C885       C1185   1.487       .  S
C885       C1446   1.418   1_655  A
C886        C887   1.509       .  S
C887        H891   1.111       .  S
C887        H893   1.110   1_455  S
C890        H894   1.110       .  S
C890       H1455   1.109       .  S
C890        H896   1.111       .  S
H892       C1447   1.109   1_655  S
C897        C898   1.402       .  A
C897        C902   1.401       .  A
C897        H904   1.085       .  S
C898        C899   1.415       .  A
C899        C900   1.403       .  A
C899        C906   1.508       .  S
C900        C901   1.402       .  A
C900        H905   1.083       .  S
C901        C902   1.415       .  A
C902        C903   1.508       .  S
C903        H907   1.110       .  S
C903        H908   1.108       .  S
C903        H909   1.110       .  S
C906       H1470   1.111       .  S
C906       H1471   1.110       .  S
C906        H912   1.111       .  S
C913        C914   1.402       .  A
C913        C918   1.404       .  A
C913        H920   1.084       .  S
C914        C915   1.413       .  A
C915        C916   1.404       .  A
C915        C922   1.507       .  S
C916        C917   1.402       .  A
C916        H921   1.084       .  S
C917        C918   1.411       .  A
C918        C919   1.505       .  S
C919        H923   1.111       .  S
C919        H924   1.108       .  S
C919        H925   1.110       .  S
C922        H926   1.110       .  S
C922        H927   1.111       .  S
C922        H928   1.111       .  S
C929        C930   1.407       .  A
C929        C934   1.402       .  A
C929        H936   1.084       .  S
C930        C931   1.418       .  A
C931        C932   1.405       .  A
C931        C938   1.507       .  S
C932        C933   1.402       .  A
C932        H937   1.084       .  S
C933        C934   1.409       .  A
C934        C935   1.506       .  S
C935        H939   1.111       .  S
C935        H940   1.110       .  S
C935        H941   1.106       .  S
C938        H942   1.110       .  S
C938        H943   1.108       .  S
C938        H944   1.111       .  S
C945        C946   1.404       .  A
C945        C950   1.402       .  A
C945        H952   1.083       .  S
C946        C947   1.417       .  A
C947        C948   1.400       .  A
C947        C954   1.509       .  S
C948        C949   1.401       .  A
C948        H953   1.085       .  S
C949        C950   1.412       .  A
C950        C951   1.508       .  S
C951        H955   1.111       .  S
C951        H956   1.111       .  S
C951        H957   1.109       .  S
C954        H958   1.111       .  S
C954        H959   1.107       .  S
C954        H960   1.110       .  S
C961        C962   1.401       .  A
C961        C966   1.406       .  A
C961        H968   1.083       .  S
C962        C963   1.407       .  A
C963        C964   1.398       .  A
C963        C970   1.508       .  S
C964        C965   1.409       .  A
C964        H969   1.083       .  S
C965        C966   1.421       .  A
C966        C967   1.508       .  S
C967        H971   1.111       .  S
C967        H972   1.110       .  S
C967        H973   1.110       .  S
C970        H974   1.110       .  S
C970        H975   1.107       .  S
C970        H976   1.111       .  S
C977        C978   1.406       .  A
C977        C982   1.405       .  A
C977        H984   1.084       .  S
C978        C979   1.419       .  A
C979        C980   1.401       .  A
C979        C986   1.509       .  S
C980        C981   1.399       .  A
C980        H985   1.084       .  S
C981        C982   1.414       .  A
C982        C983   1.506       .  S
C983        H987   1.110       .  S
C983        H988   1.110       .  S
C983        H989   1.108       .  S
C986        H990   1.110       .  S
C986        H991   1.109       .  S
C986        H992   1.111       .  S
C993        C994   1.405       .  A
C993        C998   1.405       .  A
C993       H1000   1.084       .  S
C994        C995   1.420       .  A
C995        C996   1.403       .  A
C995       C1002   1.509       .  S
C996        C997   1.399       .  A
C996       H1001   1.084       .  S
C997        C998   1.414       .  A
C998        C999   1.507       .  S
C999       H1003   1.110       .  S
C999       H1004   1.111       .  S
C999       H1005   1.108       .  S
C1002      H1006   1.110       .  S
C1002      H1007   1.109       .  S
C1002      H1008   1.111       .  S
C1009      C1010   1.404       .  A
C1009      C1014   1.403       .  A
C1009      H1016   1.084       .  S
C1010      C1011   1.416       .  A
C1011      C1012   1.403       .  A
C1011      C1018   1.507       .  S
C1012      C1013   1.401       .  A
C1012      H1017   1.083       .  S
C1013      C1014   1.413       .  A
C1014      C1015   1.507       .  S
C1015      H1019   1.111       .  S
C1015      H1020   1.110       .  S
C1015      H1021   1.108       .  S
C1018      H1022   1.111       .  S
C1018      H1023   1.109       .  S
C1018      H1024   1.111       .  S
C1025      C1026   1.401       .  A
C1025      C1030   1.401       .  A
C1025      H1032   1.084       .  S
C1026      C1027   1.411       .  A
C1027      C1028   1.403       .  A
C1027      C1034   1.506       .  S
C1028      C1029   1.401       .  A
C1028      H1033   1.084       .  S
C1029      C1030   1.410       .  A
C1030      C1031   1.506       .  S
C1031      H1035   1.111       .  S
C1031      H1036   1.111       .  S
C1031      H1037   1.110       .  S
C1034      H1038   1.110       .  S
C1034      H1039   1.109       .  S
C1034      H1040   1.111       .  S
C1041      C1042   1.401       .  A
C1041      C1046   1.399       .  A
C1041      H1048   1.085       .  S
C1042      C1043   1.412       .  A
C1043      C1044   1.408       .  A
C1043      C1050   1.506       .  S
C1044      C1045   1.405       .  A
C1044      H1049   1.083       .  S
C1045      C1046   1.414       .  A
C1046      C1047   1.508       .  S
C1047      H1051   1.110       .  S
C1047      H1052   1.108       .  S
C1047      H1053   1.110       .  S
C1050      H1054   1.110       .  S
C1050      H1055   1.110       .  S
C1050      H1056   1.111       .  S
C1057      C1062   1.406       .  A
C1057      H1064   1.084       .  S
C1058      C1617   1.405       .  A
C1058      C1059   1.420       .  A
C1059      C1060   1.403       .  A
C1059      C1066   1.509       .  S
C1060      C1061   1.404       .  A
C1060      H1065   1.084       .  S
C1061      C1622   1.420       .  A
C1062      C1063   1.509       .  S
C1063      H1067   1.111       .  S
C1063      H1069   1.110       .  S
C1066      H1070   1.110       .  S
C1066      H1631   1.110       .  S
C1066      H1072   1.111       .  S
H1068      C1623   1.109       .  S
C1073      C1074   1.401       .  A
C1073      C1078   1.402       .  A
C1073      H1080   1.085       .  S
C1074      C1075   1.412       .  A
C1075      C1076   1.407       .  A
C1075      C1082   1.506       .  S
C1076      C1077   1.405       .  A
C1076      H1081   1.083       .  S
C1077      C1078   1.416       .  A
C1078      C1079   1.507       .  S
C1079      H1083   1.107       .  S
C1079      H1084   1.110       .  S
C1079      H1085   1.110       .  S
C1082      H1646   1.111       .  S
C1082      H1087   1.110       .  S
C1082      H1088   1.111       .  S
C1089      C1090   1.401       .  A
C1089      C1094   1.402       .  A
C1089      H1096   1.084       .  S
C1090      C1091   1.415       .  A
C1091      C1092   1.404       .  A
C1091      C1098   1.507       .  S
C1092      C1093   1.402       .  A
C1092      H1097   1.084       .  S
C1093      C1094   1.412       .  A
C1094      C1095   1.506       .  S
C1095      H1099   1.111       .  S
C1095      H1100   1.108       .  S
C1095      H1101   1.110       .  S
C1098      H1102   1.110       .  S
C1098      H1104   1.110       .  S
H1103      C1658   1.108       .  S
C1105      C1106   1.405       .  A
C1105      C1110   1.406       .  A
C1105      H1112   1.084       .  S
C1106      C1667   1.419       .  A
C1107      C1108   1.406       .  A
C1107      C1114   1.509       .  S
C1108      H1113   1.084   1_565  S
C1109      C1668   1.405       .  A
C1109      C1110   1.420   1_545  A
C1110      C1111   1.509   1_565  S
C1111      H1115   1.111   1_545  S
C1111      H1676   1.111       .  S
C1111      H1117   1.109       .  S
C1114      H1118   1.109       .  S
C1114      H1120   1.111       .  S
H1119      C1674   1.110       .  S
C1121      N1126   1.365   1_554  A
C1121      C1666   1.491       .  S
N1122      C1123   1.356       .  A
C1123      N1124   1.353       .  A
C1123      C1650   1.470       .  S
C1125      N1126   1.360       .  A
C1125      C1634   1.477       .  S
C1127      N1128   1.361       .  A
C1127      C1618   1.491       .  S
N1128      C1129   1.356       .  A
C1129      N1130   1.354       .  A
C1129      C1589   1.471       .  S
C1131      N1132   1.361       .  A
C1131      C1602   1.475       .  S
C1133      C1653   1.481       .  S
C1133      C1134   1.413       .  A
C1133      C1138   1.405       .  A
C1134      C1637   1.488       .  S
C1134      C1135   1.407       .  A
C1135      C1136   1.402       .  A
C1135      H1140   1.084       .  S
C1136      C1573   1.485       .  S
C1136      C1137   1.408       .  A
C1137      C1557   1.480       .  S
C1137      C1138   1.401       .  A
C1138      H1139   1.085       .  S
O1141      C1149   1.262       .  A
O1142      C1143   1.261       .  A
C1143      C1554   1.481       .  S
C1143      O1144   1.261       .  A
O1145      C1146   1.265       .  A
C1146      C1509   1.473       .  S
C1146      O1147   1.260       .  A
O1148      C1149   1.264       .  A
C1149      C1538   1.483       .  S
O1150      C1158   1.266       .  A
O1150     Cr1159   1.999   1_556  S
O1151      C1152   1.263       .  A
O1151     Cr1159   1.982   1_556  S
C1152      C1570   1.485       .  S
C1152      O1153   1.265       .  A
O1153     Cr1160   2.003   1_556  S
O1154      C1155   1.261       .  A
O1154     Cr1160   1.988   1_556  S
C1155      C1490   1.486       .  S
C1155      O1156   1.262       .  A
O1156     Cr1161   1.994   1_556  S
O1157      C1158   1.260       .  A
O1157     Cr1161   1.980   1_556  S
C1158      C1525   1.492       .  S
Cr1159     O1162   1.771       .  S
Cr1160     O1162   1.775       .  S
Cr1161     O1162   1.772       .  S
C1163      C1586   1.478       .  S
C1163      C1164   1.410       .  A
C1163      C1168   1.404       .  A
C1164      C1605   1.483       .  S
C1164      C1165   1.404       .  A
C1165      C1166   1.404       .  A
C1165      H1170   1.085       .  S
C1166      C1506   1.483       .  S
C1166      C1167   1.411       .  A
C1167      C1493   1.481       .  S
C1167      C1168   1.399       .  A
C1168      H1169   1.085       .  S
C1171      C1541   1.480       .  S
C1171      C1172   1.409       .  A
C1171      C1176   1.402       .  A
C1172      C1522   1.481       .  S
C1172      C1173   1.400       .  A
C1173      C1174   1.404       .  A
C1173      H1178   1.085       .  S
C1174      C1461   1.484       .  S
C1174      C1175   1.412       .  A
C1175      C1477   1.481       .  S
C1175      C1176   1.404       .  A
C1176      H1177   1.085       .  S
C1179      N1184   1.360   1_554  A
C1179      C1442   1.486       .  S
N1180      C1181   1.359       .  A
C1181      C1474   1.475       .  S
N1182      C1183   1.356   1_554  A
C1183      N1184   1.357       .  A
C1183      C1458   1.478       .  S
C1185      N1190   1.359       .  A
N1186      C1187   1.360       .  A
C1187      N1188   1.356   1_556  A
C1187      C1426   1.479       .  S
C1189      N1190   1.354       .  A
C1189      C1410   1.469       .  S
C1191      N1192   1.365   1_554  A
C1191      C1621   1.485       .  S
N1192      C1193   1.359       .  A
C1193      N1194   1.354   1_556  A
C1193      C1394   1.473       .  S
C1195      N1196   1.356       .  A
C1195      C1378   1.467       .  S
C1197      C1413   1.477       .  S
C1197      C1198   1.411       .  A
C1197      C1202   1.404       .  A
C1198      C1429   1.486       .  S
C1198      C1199   1.405       .  A
C1199      C1200   1.401       .  A
C1199      H1204   1.085       .  S
C1200      C1346   1.480       .  S
C1200      C1201   1.411       .  A
C1201      C1362   1.483       .  S
C1201      C1202   1.401       .  A
C1202      H1203   1.085       .  S
C1205      C1397   1.485       .  S
C1205      C1206   1.410       .  A
C1205      C1210   1.403       .  A
C1206      C1381   1.478       .  S
C1206      C1207   1.406       .  A
C1207      C1208   1.401       .  A
C1207      H1212   1.085       .  S
C1208      C1317   1.486       .  S
C1208      C1209   1.412       .  A
C1209      C1333   1.480       .  S
C1209      C1210   1.402       .  A
C1210      H1211   1.085       .  S
O1213      C1221   1.260       .  A
O1214      C1215   1.263       .  A
C1215      C1298   1.480       .  S
C1215      O1216   1.262       .  A
O1217      C1218   1.264       .  A
C1218      C1314   1.491       .  S
C1218      O1219   1.261       .  A
O1220      C1221   1.266       .  A
C1221      C1365   1.484       .  S
O1222      C1230   1.261       .  A
O1222     Cr1231   1.989       .  S
O1223      C1224   1.261       .  A
O1223     Cr1231   1.986       .  S
C1224      C1282   1.493       .  S
C1224      O1225   1.264       .  A
O1225     Cr1232   1.997       .  S
O1226      C1227   1.262       .  A
O1226     Cr1232   1.979       .  S
C1227      C1330   1.474       .  S
C1227      O1228   1.265       .  A
O1228     Cr1233   1.998   1_556  S
O1229      C1230   1.262       .  A
O1229     Cr1233   1.990   1_556  S
C1230      C1349   1.485       .  S
Cr1231     O1234   1.771       .  S
Cr1232     O1234   1.772       .  S
Cr1233     O1234   1.774   1_554  S
C1235      C1285   1.481       .  S
C1235      C1236   1.406       .  A
C1235      C1240   1.399       .  A
C1236      C1301   1.475       .  S
C1236      C1237   1.400       .  A
C1237      C1238   1.404       .  A
C1237      H1242   1.085       .  S
C1238      C1269   1.483       .  S
C1238      C1239   1.413       .  A
C1239      C1253   1.480       .  S
C1239      C1240   1.406       .  A
C1240      H1241   1.085       .  S
C1243      N1244   1.361       .  A
C1243      C1669   1.496       .  S
N1244      C1245   1.355       .  A
C1245      N1246   1.353       .  A
C1245      C1250   1.469       .  S
C1247      N1248   1.359       .  A
C1247      C1266   1.474       .  S
C1249      C1250   1.400       .  A
C1249      C1254   1.402       .  A
C1249      H1256   1.084       .  S
C1250      C1251   1.410       .  A
C1251      C1252   1.404       .  A
C1251      C1258   1.506       .  S
C1252      C1253   1.403       .  A
C1252      H1257   1.082       .  S
C1253      C1254   1.414       .  A
C1254      C1255   1.508       .  S
C1255      H1259   1.111       .  S
C1255      H1260   1.108       .  S
C1255      H1261   1.110       .  S
C1258      H1262   1.110       .  S
C1258      H1263   1.110       .  S
C1258      H1264   1.111       .  S
C1265      C1266   1.401       .  A
C1265      C1270   1.404       .  A
C1265      H1272   1.084       .  S
C1266      C1267   1.411       .  A
C1267      C1268   1.406       .  A
C1267      C1274   1.505       .  S
C1268      C1269   1.403       .  A
C1268      H1273   1.083       .  S
C1269      C1270   1.414       .  A
C1270      C1271   1.508       .  S
C1271      H1275   1.111       .  S
C1271      H1276   1.108       .  S
C1271      H1277   1.109       .  S
C1274      H1278   1.110       .  S
C1274      H1279   1.110       .  S
C1274      H1280   1.111       .  S
C1281      C1282   1.410       .  A
C1281      C1286   1.398       .  A
C1281      H1288   1.084       .  S
C1282      C1283   1.421       .  A
C1283      C1284   1.407       .  A
C1283      C1290   1.508       .  S
C1284      C1285   1.402       .  A
C1284      H1289   1.083       .  S
C1285      C1286   1.410       .  A
C1286      C1287   1.509       .  S
C1287      H1291   1.108       .  S
C1287      H1292   1.110       .  S
C1287      H1293   1.110       .  S
C1290      H1294   1.110       .  S
C1290      H1295   1.110       .  S
C1290      H1296   1.111       .  S
C1297      C1298   1.406       .  A
C1297      C1302   1.402       .  A
C1297      H1304   1.084       .  S
C1298      C1299   1.419       .  A
C1299      C1300   1.400       .  A
C1299      C1306   1.508       .  S
C1300      C1301   1.398       .  A
C1300      H1305   1.084       .  S
C1301      C1302   1.409       .  A
C1302      C1303   1.505       .  S
C1303      H1307   1.111       .  S
C1303      H1308   1.106       .  S
C1303      H1309   1.109       .  S
C1306      H1310   1.110       .  S
C1306      H1311   1.109       .  S
C1306      H1312   1.111       .  S
C1313      C1314   1.408       .  A
C1313      C1318   1.402       .  A
C1313      H1320   1.084       .  S
C1314      C1315   1.419       .  A
C1315      C1316   1.407       .  A
C1315      C1322   1.507       .  S
C1316      C1317   1.402       .  A
C1316      H1321   1.084       .  S
C1317      C1318   1.409       .  A
C1318      C1319   1.504       .  S
C1319      H1323   1.111       .  S
C1319      H1324   1.108       .  S
C1319      H1325   1.105       .  S
C1322      H1326   1.110       .  S
C1322      H1327   1.110       .  S
C1322      H1328   1.111       .  S
C1329      C1330   1.401       .  A
C1329      C1334   1.402       .  A
C1329      H1336   1.084       .  S
C1330      C1331   1.414       .  A
C1331      C1332   1.402       .  A
C1331      C1338   1.507       .  S
C1332      C1333   1.401       .  A
C1332      H1337   1.082       .  S
C1333      C1334   1.414       .  A
C1334      C1335   1.509       .  S
C1335      H1339   1.111       .  S
C1335      H1340   1.106       .  S
C1335      H1341   1.109       .  S
C1338      H1342   1.111       .  S
C1338      H1343   1.109       .  S
C1338      H1344   1.111       .  S
C1345      C1346   1.402       .  A
C1345      C1350   1.405       .  A
C1345      H1352   1.084       .  S
C1346      C1347   1.409       .  A
C1347      C1348   1.402       .  A
C1347      C1354   1.507       .  S
C1348      C1349   1.408       .  A
C1348      H1353   1.084       .  S
C1349      C1350   1.417       .  A
C1350      C1351   1.506       .  S
C1351      H1355   1.111       .  S
C1351      H1356   1.110       .  S
C1351      H1357   1.108       .  S
C1354      H1358   1.110       .  S
C1354      H1359   1.105       .  S
C1354      H1360   1.111       .  S
C1361      C1362   1.402       .  A
C1361      C1366   1.404       .  A
C1361      H1368   1.084       .  S
C1362      C1363   1.413       .  A
C1363      C1364   1.403       .  A
C1363      C1370   1.507       .  S
C1364      C1365   1.406       .  A
C1364      H1369   1.085       .  S
C1365      C1366   1.417       .  A
C1366      C1367   1.508       .  S
C1367      H1371   1.111       .  S
C1367      H1372   1.111       .  S
C1367      H1373   1.108       .  S
C1370      H1374   1.108       .  S
C1370      H1375   1.110       .  S
C1370      H1376   1.110       .  S
C1377      C1378   1.399       .  A
C1377      C1382   1.401       .  A
C1377      H1384   1.085       .  S
C1378      C1379   1.410       .  A
C1379      C1380   1.405       .  A
C1379      C1386   1.505       .  S
C1380      C1381   1.403       .  A
C1380      H1385   1.084       .  S
C1381      C1382   1.413       .  A
C1382      C1383   1.507       .  S
C1383      H1387   1.111       .  S
C1383      H1388   1.109       .  S
C1383      H1389   1.107       .  S
C1386      H1390   1.110       .  S
C1386      H1391   1.110       .  S
C1386      H1392   1.111       .  S
C1393      C1394   1.401       .  A
C1393      C1398   1.402       .  A
C1393      H1400   1.085       .  S
C1394      C1395   1.410       .  A
C1395      C1396   1.406       .  A
C1395      C1402   1.506       .  S
C1396      C1397   1.404       .  A
C1396      H1401   1.082       .  S
C1397      C1398   1.416       .  A
C1398      C1399   1.507       .  S
C1399      H1403   1.110       .  S
C1399      H1404   1.110       .  S
C1399      H1405   1.109       .  S
C1402      H1408   1.111       .  S
C1409      C1410   1.401       .  A
C1409      C1414   1.403       .  A
C1409      H1416   1.084       .  S
C1410      C1411   1.412       .  A
C1411      C1412   1.402       .  A
C1411      C1418   1.507       .  S
C1412      C1413   1.401       .  A
C1412      H1417   1.084       .  S
C1413      C1414   1.412       .  A
C1414      C1415   1.506       .  S
C1415      H1419   1.111       .  S
C1415      H1420   1.109       .  S
C1415      H1421   1.110       .  S
C1418      H1422   1.110       .  S
C1418      H1423   1.111       .  S
C1418      H1424   1.111       .  S
C1425      C1426   1.402       .  A
C1425      C1430   1.400       .  A
C1425      H1432   1.085       .  S
C1426      C1427   1.415       .  A
C1427      C1428   1.407       .  A
C1427      C1434   1.507       .  S
C1428      C1429   1.405       .  A
C1428      H1433   1.082       .  S
C1429      C1430   1.415       .  A
C1430      C1431   1.508       .  S
C1431      H1435   1.110       .  S
C1431      H1436   1.108       .  S
C1431      H1437   1.110       .  S
C1434      H1439   1.110       .  S
C1434      H1440   1.111       .  S
C1441      C1446   1.403       .  A
C1441      H1448   1.084       .  S
C1442      C1443   1.418   1_554  A
C1443      C1444   1.405   1_455  A
C1443      C1450   1.508       .  S
C1444      C1445   1.404   1_556  A
C1444      H1449   1.084       .  S
C1446      C1447   1.509       .  S
C1447      H1451   1.111       .  S
C1447      H1453   1.110   1_455  S
C1450      H1454   1.110       .  S
C1450      H1456   1.111       .  S
C1457      C1458   1.402       .  A
C1457      C1462   1.401       .  A
C1457      H1464   1.085       .  S
C1458      C1459   1.415       .  A
C1459      C1460   1.405       .  A
C1459      C1466   1.507       .  S
C1460      C1461   1.403       .  A
C1460      H1465   1.082       .  S
C1461      C1462   1.415       .  A
C1462      C1463   1.508       .  S
C1463      H1467   1.110       .  S
C1463      H1468   1.108       .  S
C1463      H1469   1.110       .  S
C1466      H1472   1.111       .  S
C1473      C1474   1.403       .  A
C1473      C1478   1.405       .  A
C1473      H1480   1.084       .  S
C1474      C1475   1.413       .  A
C1475      C1476   1.404       .  A
C1475      C1482   1.507       .  S
C1476      C1477   1.402       .  A
C1476      H1481   1.084       .  S
C1477      C1478   1.411       .  A
C1478      C1479   1.506       .  S
C1479      H1483   1.111       .  S
C1479      H1484   1.109       .  S
C1479      H1485   1.110       .  S
C1482      H1486   1.110       .  S
C1482      H1487   1.111       .  S
C1482      H1488   1.111       .  S
C1489      C1490   1.408       .  A
C1489      C1494   1.402       .  A
C1489      H1496   1.084       .  S
C1490      C1491   1.418       .  A
C1491      C1492   1.405       .  A
C1491      C1498   1.506       .  S
C1492      C1493   1.402       .  A
C1492      H1497   1.084       .  S
C1493      C1494   1.408       .  A
C1494      C1495   1.506       .  S
C1495      H1499   1.111       .  S
C1495      H1500   1.110       .  S
C1495      H1501   1.107       .  S
C1498      H1502   1.110       .  S
C1498      H1503   1.108       .  S
C1498      H1504   1.111       .  S
C1505      C1506   1.404       .  A
C1505      C1510   1.402       .  A
C1505      H1512   1.083       .  S
C1506      C1507   1.416       .  A
C1507      C1508   1.400       .  A
C1507      C1514   1.509       .  S
C1508      C1509   1.402       .  A
C1508      H1513   1.085       .  S
C1509      C1510   1.412       .  A
C1510      C1511   1.508       .  S
C1511      H1515   1.111       .  S
C1511      H1516   1.111       .  S
C1511      H1517   1.109       .  S
C1514      H1518   1.110       .  S
C1514      H1519   1.107       .  S
C1514      H1520   1.110       .  S
C1521      C1522   1.401       .  A
C1521      C1526   1.406       .  A
C1521      H1528   1.082       .  S
C1522      C1523   1.408       .  A
C1523      C1524   1.399       .  A
C1523      C1530   1.508       .  S
C1524      C1525   1.410       .  A
C1524      H1529   1.083       .  S
C1525      C1526   1.421       .  A
C1526      C1527   1.508       .  S
C1527      H1531   1.111       .  S
C1527      H1532   1.110       .  S
C1527      H1533   1.110       .  S
C1530      H1534   1.109       .  S
C1530      H1535   1.108       .  S
C1530      H1536   1.111       .  S
C1537      C1538   1.405       .  A
C1537      C1542   1.404       .  A
C1537      H1544   1.084       .  S
C1538      C1539   1.419       .  A
C1539      C1540   1.402       .  A
C1539      C1546   1.509       .  S
C1540      C1541   1.399       .  A
C1540      H1545   1.083       .  S
C1541      C1542   1.413       .  A
C1542      C1543   1.507       .  S
C1543      H1547   1.110       .  S
C1543      H1548   1.110       .  S
C1543      H1549   1.108       .  S
C1546      H1550   1.110       .  S
C1546      H1551   1.109       .  S
C1546      H1552   1.111       .  S
C1553      C1554   1.405       .  A
C1553      C1558   1.404       .  A
C1553      H1560   1.084       .  S
C1554      C1555   1.418       .  A
C1555      C1556   1.400       .  A
C1555      C1562   1.509       .  S
C1556      C1557   1.399       .  A
C1556      H1561   1.083       .  S
C1557      C1558   1.413       .  A
C1558      C1559   1.507       .  S
C1559      H1563   1.110       .  S
C1559      H1564   1.110       .  S
C1559      H1565   1.108       .  S
C1562      H1566   1.110       .  S
C1562      H1567   1.109       .  S
C1562      H1568   1.111       .  S
C1569      C1570   1.405       .  A
C1569      C1574   1.404       .  A
C1569      H1576   1.084       .  S
C1570      C1571   1.418       .  A
C1571      C1572   1.404       .  A
C1571      C1578   1.507       .  S
C1572      C1573   1.401       .  A
C1572      H1577   1.084       .  S
C1573      C1574   1.412       .  A
C1574      C1575   1.507       .  S
C1575      H1579   1.111       .  S
C1575      H1580   1.109       .  S
C1575      H1581   1.107       .  S
C1578      H1582   1.110       .  S
C1578      H1583   1.109       .  S
C1578      H1584   1.111       .  S
C1585      C1586   1.401       .  A
C1585      C1590   1.403       .  A
C1585      H1592   1.083       .  S
C1586      C1587   1.412       .  A
C1587      C1588   1.402       .  A
C1587      C1594   1.506       .  S
C1588      C1589   1.401       .  A
C1588      H1593   1.084       .  S
C1589      C1590   1.412       .  A
C1590      C1591   1.505       .  S
C1591      H1595   1.111       .  S
C1591      H1596   1.110       .  S
C1591      H1597   1.107       .  S
C1594      H1598   1.110       .  S
C1594      H1599   1.109       .  S
C1594      H1600   1.111       .  S
C1601      C1602   1.401       .  A
C1601      C1606   1.400       .  A
C1601      H1608   1.085       .  S
C1602      C1603   1.412       .  A
C1603      C1604   1.407       .  A
C1603      C1610   1.506       .  S
C1604      C1605   1.405       .  A
C1604      H1609   1.083       .  S
C1605      C1606   1.414       .  A
C1606      C1607   1.508       .  S
C1607      H1611   1.110       .  S
C1607      H1612   1.108       .  S
C1607      H1613   1.110       .  S
C1610      H1614   1.110       .  S
C1610      H1615   1.111       .  S
C1610      H1616   1.111       .  S
C1617      C1622   1.406       .  A
C1617      H1624   1.084       .  S
C1618      C1619   1.420       .  A
C1619      C1620   1.405       .  A
C1619      C1626   1.507       .  S
C1620      C1621   1.402   1_556  A
C1620      H1625   1.084       .  S
C1622      C1623   1.509       .  S
C1623      H1627   1.111       .  S
C1623      H1629   1.110       .  S
C1626      H1630   1.109       .  S
C1626      H1632   1.111       .  S
C1633      C1634   1.401       .  A
C1633      C1638   1.401       .  A
C1633      H1640   1.085       .  S
C1634      C1635   1.413       .  A
C1635      C1636   1.407       .  A
C1635      C1642   1.506       .  S
C1636      C1637   1.405       .  A
C1636      H1641   1.083       .  S
C1637      C1638   1.416       .  A
C1638      C1639   1.508       .  S
C1639      H1643   1.108       .  S
C1639      H1644   1.110       .  S
C1639      H1645   1.110       .  S
C1642      H1647   1.110       .  S
C1642      H1648   1.111       .  S
C1649      C1650   1.402       .  A
C1649      C1654   1.404       .  A
C1649      H1656   1.084       .  S
C1650      C1651   1.414       .  A
C1651      C1652   1.402       .  A
C1651      C1658   1.508       .  S
C1652      C1653   1.402       .  A
C1652      H1657   1.084       .  S
C1653      C1654   1.412       .  A
C1654      C1655   1.505       .  S
C1655      H1659   1.111       .  S
C1655      H1660   1.108       .  S
C1655      H1661   1.110       .  S
C1658      H1662   1.110       .  S
C1658      H1664   1.110       .  S
C1665      C1666   1.404   1_556  A
C1665      C1670   1.406       .  A
C1665      H1672   1.084       .  S
C1667      C1668   1.405   1_565  A
C1667      C1674   1.509       .  S
C1668      H1673   1.084       .  S
C1669      C1670   1.422   1_545  A
C1670      C1671   1.509   1_565  S
C1671      H1675   1.111   1_545  S
C1671      H1677   1.110       .  S
C1674      H1678   1.109       .  S
C1674      H1680   1.111       .  S
