geometry optimzed in LAMMPS
_audit_creation_date              2020-12-01 
_audit_creation_method            'lammps2cif' 
_symmetry_space_group_name_H-M    'P1' 
_symmetry_Int_Tables_number       1 
_symmetry_cell_setting            triclinic 
loop_ 
_symmetry_equiv_pos_as_xyz 
  x,y,z 
_cell_length_a                    56.28611239 
_cell_length_b                    56.34284679727764 
_cell_length_c                    40.73765007728072 
_cell_angle_alpha                 96.75899810182473 
_cell_angle_beta                  83.07944975747637 
_cell_angle_gamma                 121.97744481945463 
loop_ 
_atom_site_label 
_atom_site_type_symbol 
_atom_site_fract_x 
_atom_site_fract_y 
_atom_site_fract_z 
_atom_site_charge 
C1          C  0.34623306  0.15143499  0.95341837     0.79700
N2          N  0.31773207  0.13661809  0.95629070    -0.78600
C3          C  0.30315167  0.14980664  0.95865193     0.82100
N4          N  0.31732818  0.17816162  0.95789352    -0.78600
C5          C  0.34584979  0.19319691  0.95454362     0.82200
N6          N  0.36011509  0.17969177  0.95218301    -0.80300
C7          C  0.34528231  0.15058620  0.45059828     0.79700
N8          N  0.31684260  0.13597596  0.45406909    -0.78600
C9          C  0.30237580  0.14930410  0.45759232     0.82100
N10         N  0.31666440  0.17774807  0.45748657    -0.78600
C11         C  0.34523004  0.19270242  0.45372871     0.82200
N12         N  0.35930715  0.17892673  0.45017304    -0.80300
C13         C  0.15306445  0.34329137  0.79426630     0.79700
N14         N  0.13873353  0.31499705  0.79580851    -0.78600
C15         C  0.15254562  0.30112287  0.79450024     0.82100
N16         N  0.18105721  0.31588195  0.79185517    -0.78600
C17         C  0.19579888  0.34420552  0.79053481     0.82200
N18         N  0.18163303  0.35779010  0.79185960    -0.80300
C19         C  0.15336928  0.34311977  0.30205403     0.79700
N20         N  0.18165140  0.35771169  0.30359717    -0.78600
C21         C  0.19600359  0.34432707  0.30063961     0.82100
N22         N  0.18182022  0.31592191  0.29635427    -0.78600
C23         C  0.15340657  0.30087708  0.29516136     0.82200
N24         N  0.13932831  0.31466073  0.29810649    -0.80300
N25         N  0.48097613  0.49184747  0.95639294    -0.06600
N26         N  0.47469487  0.48109016  0.98555312    -0.58800
N27         N  0.48131940  0.04063665  0.91694701    -0.06300
N28         N  0.47751583  0.06201407  0.92079621    -0.60900
N29         N  0.45705134  0.01676790  0.91710065    -0.05900
N30         N  0.43619754  0.02139921  0.92128880    -0.58700
N31         N  0.00540759  0.01561752  0.95622177    -0.05600
N32         N  0.01629710  0.02136990  0.98518978    -0.61200
C33         C  0.49696720  0.49960150  0.00323154     0.95500
C34         C  0.44927520  0.04970299  0.92345148     0.95300
N35         N  0.04489261  0.05836161  0.84153079    -0.06800
N36         N  0.05592867  0.07812750  0.82022467    -0.59300
N37         N  0.06102179  0.04275532  0.90853698    -0.04900
N38         N  0.08098602  0.05430309  0.92957893    -0.60600
N39         N  0.06919440  0.03382477  0.88075227    -0.06900
N40         N  0.09470966  0.03877060  0.88249480    -0.59600
N41         N  0.03587544  0.06645416  0.86931954    -0.04600
N42         N  0.04011371  0.09162187  0.86730451    -0.60700
Mn43       Mn  0.02120540  0.04194827  0.91336246     1.18400
C44         C  0.05239202  0.09852605  0.83650743     0.97600
C45         C  0.10174884  0.05138435  0.91311954     0.98300
N46         N  0.42997769  0.46148402  0.86937718    -0.06900
N47         N  0.40433165  0.45621661  0.86741062    -0.63200
N48         N  0.46307438  0.42865383  0.88092682    -0.05700
N49         N  0.45813248  0.40318170  0.88219783    -0.63900
N50         N  0.45371360  0.43642063  0.90866744    -0.06400
N51         N  0.44177494  0.41606095  0.92929253    -0.63500
N52         N  0.43828664  0.45239299  0.84180566    -0.05300
N53         N  0.41830630  0.44037759  0.82078772    -0.64100
Mn54       Mn  0.45476200  0.47637281  0.91350609     1.10700
C55         C  0.39743372  0.44326775  0.83688519     0.98800
C56         C  0.44504736  0.39563796  0.91249093     0.98900
N57         N  0.04236533  0.47849386  0.83375496    -0.06400
N58         N  0.06336206  0.47406476  0.82990003    -0.61800
N59         N  0.49385449  0.47896499  0.79432271    -0.05700
N60         N  0.48324774  0.47242453  0.76511168    -0.58500
N61         N  0.01813208  0.00285396  0.79399475    -0.07000
N62         N  0.02456810  0.01299193  0.76444870    -0.61300
N63         N  0.01817289  0.45454224  0.83401889    -0.06000
N64         N  0.02220122  0.43330075  0.83048690    -0.58500
Mn65       Mn  0.04429280  0.01869066  0.83691027     1.20200
Mn66       Mn  0.47811385  0.45313863  0.83726047     1.10100
Cl67       Cl  0.49958775  0.49754087  0.87526592    -0.86500
C68         C  0.05048849  0.44578133  0.82799400     0.95800
C69         C  0.50254624  0.49389341  0.74672916     0.95600
N70         N  0.48086750  0.49209841  0.45647362    -0.06600
N71         N  0.47430596  0.48122770  0.48557147    -0.58800
N72         N  0.48104297  0.04066375  0.41577651    -0.06300
N73         N  0.47670078  0.06163595  0.41747328    -0.60900
N74         N  0.45703795  0.01655762  0.41613125    -0.05900
N75         N  0.43583138  0.02057569  0.41817504    -0.58700
N76         N  0.00491712  0.01622524  0.45671853    -0.05600
N77         N  0.01529013  0.02215609  0.48602750    -0.61200
C78         C  0.49602531  0.50009476  0.50374906     0.95500
C79         C  0.44838891  0.04877784  0.41892474     0.95300
N80         N  0.04579064  0.05847623  0.34169172    -0.06800
N81         N  0.05713468  0.07800559  0.32006843    -0.59300
N82         N  0.06077535  0.04304981  0.40992091    -0.04900
N83         N  0.08000058  0.05367291  0.43182915    -0.60600
N84         N  0.06922692  0.03398313  0.38249223    -0.06900
N85         N  0.09418139  0.03791605  0.38530583    -0.59600
N86         N  0.03650503  0.06683191  0.36905680    -0.04600
N87         N  0.04093530  0.09202452  0.36636132    -0.60700
Mn88       Mn  0.02114081  0.04242100  0.41351906     1.18400
C89         C  0.05353790  0.09857109  0.33558404     0.97600
C90         C  0.10058501  0.05004393  0.41621653     0.98300
N91         N  0.43155158  0.46224572  0.36938414    -0.06900
N92         N  0.40668130  0.45869487  0.36757870    -0.63200
N93         N  0.46359493  0.42862734  0.38135332    -0.05700
N94         N  0.45872718  0.40318660  0.38303923    -0.63900
N95         N  0.45435361  0.43661536  0.40901707    -0.06400
N96         N  0.44248858  0.41644814  0.42991192    -0.63500
N97         N  0.43950469  0.45321666  0.34151548    -0.05300
N98         N  0.41977036  0.44286894  0.32024319    -0.64100
Mn99       Mn  0.45539111  0.47655563  0.41339103     1.10700
C100        C  0.39957825  0.44678338  0.33682998     0.98800
C101        C  0.44574246  0.39590057  0.41346974     0.98900
N102        N  0.04341185  0.47882987  0.33593831    -0.06400
N103        N  0.06444270  0.47460424  0.33469341    -0.61800
N104        N  0.49570710  0.47908969  0.29419064    -0.05700
N105        N  0.48575706  0.47232221  0.26455624    -0.58500
N106        N  0.02010976  0.00286598  0.29404239    -0.07000
N107        N  0.02732018  0.01261893  0.26417669    -0.61300
N108        N  0.01927939  0.45481487  0.33569040    -0.06000
N109        N  0.02339774  0.43371901  0.33438524    -0.58500
Mn110      Mn  0.04529633  0.01889172  0.33793524     1.20200
Mn111      Mn  0.47917134  0.45330745  0.33749194     1.10100
Cl112      Cl  0.50026123  0.49780721  0.37555153    -0.86500
C113        C  0.05166463  0.44636839  0.33380175     0.95800
C114        C  0.50559916  0.49345338  0.24607012     0.95600
C115        C  0.45139412  0.45625334  0.64434437    -0.18400
C116        C  0.45068655  0.45679446  0.61020938    -0.20500
C117        C  0.47430690  0.47672616  0.59172456     0.20100
C118        C  0.49889483  0.49627738  0.60779900    -0.03400
C119        C  0.49959672  0.49575711  0.64223048    -0.06500
C120        C  0.47573282  0.47565142  0.66059400     0.20400
C121        C  0.02417751  0.01541331  0.65825836     0.18600
C122        C  0.04784082  0.03521628  0.63977777    -0.18000
C123        C  0.04713653  0.03575472  0.60570469    -0.20200
C124        C  0.02275611  0.01648364  0.58952688     0.20100
C125        C  0.02177016  0.01728264  0.55546947    -0.33200
C126        C  0.49728819  0.49809144  0.53932135     0.00700
C127        C  0.47371461  0.47766762  0.55754902    -0.24600
C128        C  0.47669051  0.47528977  0.69482445    -0.29100
C129        C  0.50115188  0.49488241  0.71092306     0.06400
C130        C  0.02473732  0.01491478  0.69246053    -0.27800
H131        H  0.43288203  0.44067926  0.65804860     0.11100
H132        H  0.43162023  0.44165395  0.59827266     0.12300
H133        H  0.06690204  0.05037407  0.65171053     0.11300
H134        H  0.06564516  0.05134447  0.59201681     0.10600
H135        H  0.04002949  0.03300452  0.54156960     0.16000
H136        H  0.45472075  0.46283073  0.54528170     0.11900
H137        H  0.45842682  0.45974870  0.70890417     0.14700
H138        H  0.04371604  0.02995586  0.70463789     0.14500
C139        C  0.45200034  0.46184371  0.14601303    -0.18400
C140        C  0.45085086  0.46248608  0.11202881    -0.20500
C141        C  0.47533571  0.47924246  0.09230325     0.20100
C142        C  0.50127218  0.49551201  0.10696560    -0.03400
C143        C  0.50243030  0.49488833  0.14131374    -0.06500
C144        C  0.47765478  0.47797851  0.16090123     0.20400
C145        C  0.02832060  0.51131153  0.15606418     0.18600
C146        C  0.05285085  0.52783515  0.13624393    -0.18000
C147        C  0.05169881  0.52848569  0.10223025    -0.20200
C148        C  0.02599780  0.51258798  0.08738915     0.20100
C149        C  0.02452737  0.51366229  0.05343059    -0.33200
C150        C  0.49870976  0.49759886  0.03870792     0.00700
C151        C  0.47427395  0.48022243  0.05826579    -0.24600
C152        C  0.47892722  0.47758805  0.19503705    -0.29100
C153        C  0.50456398  0.49420080  0.21003017     0.06400
C154        C  0.02918895  0.51100056  0.19035449    -0.27800
H155        H  0.43277915  0.44878385  0.16069081     0.11100
H156        H  0.43075852  0.44992486  0.10118085     0.12300
H157        H  0.07293478  0.54043131  0.14710185     0.11300
H158        H  0.07090954  0.54158597  0.08755905     0.10600
H159        H  0.04345679  0.52701425  0.03846402     0.16000
H160        H  0.45427783  0.46790607  0.04713995     0.11900
H161        H  0.45987735  0.46456776  0.21002837     0.14700
H162        H  0.04907448  0.52362286  0.20167265     0.14500
C163        C  0.15295358  0.21279445  0.29288192    -0.18400
C164        C  0.13881025  0.18428907  0.29850868    -0.20500
C165        C  0.10969405  0.16924235  0.30608701     0.20100
C166        C  0.09452724  0.18283851  0.30718582    -0.03400
C167        C  0.10876673  0.21152278  0.30101754    -0.06500
C168        C  0.13818157  0.22666279  0.29447393     0.20400
C169        C  0.09371237  0.22525192  0.30256398     0.18600
C170        C  0.06447732  0.21000819  0.30938596    -0.18000
C171        C  0.05041393  0.18168327  0.31604728    -0.20200
C172        C  0.06530844  0.16803876  0.31558189     0.20100
C173        C  0.05172917  0.14014676  0.32428326    -0.33200
C174        C  0.06688469  0.12674296  0.32352257     0.00700
C175        C  0.09563050  0.14109611  0.31364072    -0.24600
C176        C  0.15245677  0.25560304  0.29091277    -0.29100
C177        C  0.13778928  0.26976113  0.29396665     0.06400
C178        C  0.10827196  0.25419366  0.29865998    -0.27800
H179        H  0.17554003  0.22411429  0.28782384     0.11100
H180        H  0.15073969  0.17415077  0.29763262     0.12300
H181        H  0.05257605  0.22019600  0.31047384     0.11300
H182        H  0.02795465  0.17057441  0.32211046     0.10600
H183        H  0.02950907  0.12893121  0.33193030     0.16000
H184        H  0.10729848  0.13073238  0.31347379     0.11900
H185        H  0.17514394  0.26723212  0.28691997     0.14700
H186        H  0.09665738  0.26475525  0.30084563     0.14500
C187        C  0.31923057  0.37395384  0.27515315    -0.18400
C188        C  0.29030910  0.35861986  0.27149692    -0.20500
C189        C  0.27289051  0.36717757  0.28935177     0.20100
C190        C  0.28478699  0.39170585  0.31072185    -0.03400
C191        C  0.31389417  0.40697205  0.31471922    -0.06500
C192        C  0.33118161  0.39795082  0.29697188     0.20400
C193        C  0.32555628  0.43081365  0.33712039     0.18600
C194        C  0.30825417  0.43969009  0.35457385    -0.18000
C195        C  0.27948263  0.42481687  0.35020837    -0.20200
C196        C  0.26754154  0.40071081  0.32855066     0.20100
C197        C  0.23862293  0.38528603  0.32466580    -0.33200
C198        C  0.22658010  0.36059092  0.30384656     0.00700
C199        C  0.24378418  0.35156130  0.28639262    -0.24600
C200        C  0.35987509  0.41240745  0.30236792    -0.29100
C201        C  0.37120821  0.43521085  0.32596262     0.06400
C202        C  0.35411369  0.44473978  0.34259027    -0.27800
H203        H  0.33218375  0.36673945  0.26136135     0.11100
H204        H  0.28152746  0.33993111  0.25485747     0.12300
H205        H  0.31692877  0.45796749  0.37185950     0.11300
H206        H  0.26650216  0.43196641  0.36409702     0.10600
H207        H  0.22535994  0.39216906  0.33842235     0.16000
H208        H  0.23454430  0.33259996  0.27019022     0.11900
H209        H  0.37296657  0.40490290  0.28969582     0.14700
H210        H  0.36284984  0.46243452  0.36072342     0.14500
C211        C  0.05077326  0.35780095  0.32623327    -0.18400
C212        C  0.06491948  0.34328680  0.32093224    -0.20500
C213        C  0.09429104  0.35789789  0.31595399     0.20100
C214        C  0.10958740  0.38745881  0.31650021    -0.03400
C215        C  0.09532375  0.40211072  0.32184871    -0.06500
C216        C  0.06576468  0.38717385  0.32658407     0.20400
C217        C  0.11062330  0.43166603  0.32224623     0.18600
C218        C  0.14001063  0.44630071  0.31749342    -0.18000
C219        C  0.15414278  0.43177865  0.31221358    -0.20200
C220        C  0.13911948  0.40238999  0.31165419     0.20100
C221        C  0.15314507  0.38771090  0.30651601    -0.33200
C222        C  0.13810376  0.35822531  0.30615788     0.00700
C223        C  0.10862185  0.34347776  0.31065498    -0.24600
C224        C  0.05168506  0.40182936  0.33115048    -0.29100
C225        C  0.06675394  0.43122506  0.33095723     0.06400
C226        C  0.09624381  0.44602828  0.32694581    -0.27800
H227        H  0.02807843  0.34603451  0.32989775     0.11100
H228        H  0.05286440  0.32060074  0.32068694     0.12300
H229        H  0.15206593  0.46898643  0.31772716     0.11300
H230        H  0.17684141  0.44354269  0.30855393     0.10600
H231        H  0.17585503  0.39935494  0.30293247     0.16000
H232        H  0.09679773  0.32078929  0.31051911     0.11900
H233        H  0.02896089  0.39030380  0.33442497     0.14700
H234        H  0.10800583  0.46870711  0.32687393     0.14500
C235        C  0.06517069  0.21318400  0.82547592    -0.18400
C236        C  0.05101926  0.18468279  0.83125763    -0.20500
C237        C  0.06487707  0.16981924  0.82487757     0.20100
C238        C  0.09316919  0.18370683  0.81213331    -0.03400
C239        C  0.10758043  0.21256015  0.80690272    -0.06500
C240        C  0.09350383  0.22735546  0.81358931     0.20400
C241        C  0.13618085  0.22666461  0.79547800     0.18600
C242        C  0.14998227  0.21176116  0.78885333    -0.18000
C243        C  0.13559569  0.18307986  0.79354597    -0.20200
C244        C  0.10725892  0.16891087  0.80528481     0.20100
C245        C  0.09301267  0.14040769  0.81124530    -0.33200
C246        C  0.06530234  0.12687487  0.82523087     0.00700
C247        C  0.05123945  0.14153313  0.83182059    -0.24600
C248        C  0.10811531  0.25613001  0.80873916    -0.29100
C249        C  0.13678059  0.27044806  0.79784185     0.06400
C250        C  0.15059265  0.25547994  0.79119259    -0.27800
H251        H  0.05405711  0.22423829  0.83072896     0.11100
H252        H  0.02928472  0.17430787  0.84093925     0.12300
H253        H  0.17194995  0.22231410  0.78011507     0.11300
H254        H  0.14673831  0.17204978  0.78839743     0.10600
H255        H  0.10395358  0.12913270  0.80673703     0.16000
H256        H  0.02985592  0.13098644  0.84277701     0.11900
H257        H  0.09728097  0.26746112  0.81417221     0.14700
H258        H  0.17263041  0.26624539  0.78270711     0.14500
C259        C  0.28473035  0.43202363  0.81586963    -0.18400
C260        C  0.31281313  0.44574704  0.82342576    -0.20500
C261        C  0.32714054  0.43133029  0.81980805     0.20100
C262        C  0.31326897  0.40299473  0.80752241    -0.03400
C263        C  0.28476814  0.38900723  0.80045914    -0.06500
C264        C  0.27037959  0.40354466  0.80497321     0.20400
C265        C  0.27046996  0.36029285  0.78989877     0.18600
C266        C  0.28504674  0.34609304  0.78527022    -0.18000
C267        C  0.31341398  0.36006594  0.79172443    -0.20200
C268        C  0.32761955  0.38840891  0.80323578     0.20100
C269        C  0.35566382  0.40222574  0.81140640    -0.33200
C270        C  0.36912073  0.43004120  0.82498826     0.00700
C271        C  0.35484676  0.44452390  0.82899731    -0.24600
C272        C  0.24165142  0.38913258  0.79977072    -0.29100
C273        C  0.22687072  0.36015502  0.79095736     0.06400
C274        C  0.24165148  0.34606612  0.78526409    -0.27800
H275        H  0.27402874  0.44352243  0.81933984     0.11100
H276        H  0.32322159  0.46756054  0.83253811     0.12300
H277        H  0.27439970  0.32405751  0.77708963     0.11300
H278        H  0.32409757  0.34854800  0.78833529     0.10600
H279        H  0.36663445  0.39098260  0.80862796     0.16000
H280        H  0.36531843  0.46601150  0.83938092     0.11900
H281        H  0.23056351  0.40024992  0.80418812     0.14700
H282        H  0.23058780  0.32381480  0.77810771     0.14500
C283        C  0.06455398  0.34312070  0.81606215    -0.18400
C284        C  0.05023158  0.35746935  0.82120060    -0.20500
C285        C  0.06481629  0.38661503  0.81887906     0.20100
C286        C  0.09409863  0.40142551  0.81107876    -0.03400
C287        C  0.10853564  0.38693365  0.80582463    -0.06500
C288        C  0.09369626  0.35767288  0.80849047     0.20400
C289        C  0.13783862  0.40177610  0.79825171     0.18600
C290        C  0.15237646  0.43087860  0.79560532    -0.18000
C291        C  0.13808643  0.44524703  0.80084695    -0.20200
C292        C  0.10900852  0.43074660  0.80877915     0.20100
C293        C  0.09461667  0.44507502  0.81455825    -0.33200
C294        C  0.06546374  0.43047485  0.82235849     0.00700
C295        C  0.05067618  0.40122599  0.82434814    -0.24600
C296        C  0.10828937  0.34352468  0.80399230    -0.29100
C297        C  0.13762740  0.35822768  0.79707482     0.06400
C298        C  0.15216399  0.38735201  0.79389988    -0.27800
H299        H  0.05284776  0.32063983  0.81819536     0.11100
H300        H  0.02775497  0.34578129  0.82715657     0.12300
H301        H  0.17486198  0.44257799  0.78972456     0.11300
H302        H  0.14981504  0.46774502  0.79886851     0.10600
H303        H  0.10612114  0.46760351  0.81280820     0.16000
H304        H  0.02819251  0.38984572  0.83035923     0.11900
H305        H  0.09677376  0.32108890  0.80648290     0.14700
H306        H  0.17470880  0.39892241  0.78841513     0.14500
C307        C  0.44735621  0.13573732  0.41718897    -0.18400
C308        C  0.43298106  0.15003074  0.42195065    -0.20500
C309        C  0.40410795  0.13572867  0.43122232     0.20100
C310        C  0.38948998  0.10666308  0.43534716    -0.03400
C311        C  0.40396699  0.09222300  0.43044854    -0.06500
C312        C  0.43308370  0.10689366  0.42157373     0.20400
C313        C  0.38934331  0.06316785  0.43467822     0.18600
C314        C  0.36042249  0.04880346  0.44361765    -0.18000
C315        C  0.34609239  0.06312683  0.44853787    -0.20200
C316        C  0.36044388  0.09203657  0.44453120     0.20100
C317        C  0.34624147  0.10654945  0.44959591    -0.33200
C318        C  0.36064809  0.13557145  0.44567822     0.00700
C319        C  0.38962567  0.14998912  0.43647100    -0.24600
C320        C  0.44744877  0.09251906  0.41755518    -0.29100
C321        C  0.43303807  0.06364025  0.42206099     0.06400
C322        C  0.40394290  0.04904645  0.43023975    -0.27800
H323        H  0.46968077  0.14727989  0.41024084     0.11100
H324        H  0.44449052  0.17232504  0.41854627     0.12300
H325        H  0.34890159  0.02649851  0.44696478     0.11300
H326        H  0.32377911  0.05159540  0.45555427     0.10600
H327        H  0.32392948  0.09517351  0.45668409     0.16000
H328        H  0.40094182  0.17229884  0.43316446     0.11900
H329        H  0.46985670  0.10382944  0.41102469     0.14700
H330        H  0.39271932  0.02677034  0.43375056     0.14500
C331        C  0.36492434  0.31263207  0.46358463    -0.18400
C332        C  0.35038446  0.28388199  0.46819648    -0.20500
C333        C  0.36288039  0.26810106  0.45759084     0.20100
C334        C  0.39040218  0.28149012  0.44239093    -0.03400
C335        C  0.40491716  0.31039641  0.43730376    -0.06500
C336        C  0.39211352  0.32604878  0.44799497     0.20400
C337        C  0.43198684  0.32348004  0.42087540     0.18600
C338        C  0.44463531  0.30781709  0.41059262    -0.18000
C339        C  0.43044924  0.27930049  0.41615326    -0.20200
C340        C  0.40326779  0.26592135  0.43175247     0.20100
C341        C  0.38859022  0.23715299  0.43638516    -0.33200
C342        C  0.36092815  0.22346160  0.45090945     0.00700
C343        C  0.34824441  0.23913862  0.46153898    -0.24600
C344        C  0.40640421  0.35462185  0.44201689    -0.29100
C345        C  0.43283649  0.36737410  0.42446960     0.06400
C346        C  0.44561570  0.35180363  0.41424771    -0.27800
H347        H  0.35474423  0.32430254  0.47180934     0.11100
H348        H  0.32928830  0.27395392  0.47993559     0.12300
H349        H  0.46542770  0.31757999  0.39802586     0.11300
H350        H  0.44059820  0.26760959  0.40783482     0.10600
H351        H  0.39853311  0.22529321  0.42783426     0.16000
H352        H  0.32698939  0.22881762  0.47285631     0.11900
H353        H  0.39637001  0.36655203  0.44945807     0.14700
H354        H  0.46600358  0.36167987  0.40064517     0.14500
C355        C  0.18898810  0.05157721  0.41062977    -0.18400
C356        C  0.21737259  0.06556810  0.41666670    -0.20500
C357        C  0.22975033  0.09103561  0.43592468     0.20100
C358        C  0.21323435  0.10208289  0.45025431    -0.03400
C359        C  0.18442754  0.08766197  0.44468151    -0.06500
C360        C  0.17248210  0.06266546  0.42409838     0.20400
C361        C  0.16786668  0.09880230  0.45859854     0.18600
C362        C  0.18017125  0.12394804  0.47854202    -0.18000
C363        C  0.20888001  0.13851269  0.48358689    -0.20200
C364        C  0.22569865  0.12800596  0.46910057     0.20100
C365        C  0.25485286  0.14328961  0.47220916    -0.33200
C366        C  0.27144500  0.13257683  0.45732043     0.00700
C367        C  0.25857189  0.10609758  0.44004725    -0.24600
C368        C  0.14456365  0.04979983  0.41622487    -0.29100
C369        C  0.12827553  0.06132948  0.42896572     0.06400
C370        C  0.13966634  0.08524620  0.45109327    -0.27800
H371        H  0.18006192  0.03233319  0.39492521     0.11100
H372        H  0.22981944  0.05683550  0.40555530     0.12300
H373        H  0.16775349  0.13275358  0.48949980     0.11300
H374        H  0.21802354  0.15824405  0.49835568     0.10600
H375        H  0.26467067  0.16359780  0.48578313     0.16000
H376        H  0.27123105  0.09776557  0.42832314     0.11900
H377        H  0.13570779  0.03122103  0.39936540     0.14700
H378        H  0.12713879  0.09424094  0.46083410     0.14500
C379        C  0.43468119  0.15166081  0.92863569    -0.18400
C380        C  0.44915033  0.13745393  0.92458467    -0.20500
C381        C  0.43490748  0.10867383  0.92938029     0.20100
C382        C  0.40583479  0.09409982  0.93853494    -0.03400
C383        C  0.39127151  0.10843923  0.94270431    -0.06500
C384        C  0.40574874  0.13733417  0.93763654     0.20400
C385        C  0.36218707  0.09378790  0.95169847     0.18600
C386        C  0.34797601  0.06507147  0.95673806    -0.18000
C387        C  0.36238500  0.05085227  0.95255258    -0.20200
C388        C  0.39123304  0.06513018  0.94326798     0.20100
C389        C  0.40565106  0.05086047  0.93835790    -0.33200
C390        C  0.43452240  0.06516277  0.92899924     0.00700
C391        C  0.44911676  0.09412838  0.92488351    -0.24600
C392        C  0.39100573  0.15133277  0.94146172    -0.29100
C393        C  0.36191855  0.13679205  0.95016350     0.06400
C394        C  0.34773932  0.10802111  0.95532222    -0.27800
H395        H  0.44611019  0.17384849  0.92463318     0.11100
H396        H  0.47145881  0.14894854  0.91752076     0.12300
H397        H  0.32565965  0.05355911  0.96373968     0.11300
H398        H  0.35092230  0.02863441  0.95638774     0.10600
H399        H  0.39436196  0.02857742  0.94183683     0.16000
H400        H  0.47141647  0.10525308  0.91768201     0.11900
H401        H  0.40217566  0.17348833  0.93730924     0.14700
H402        H  0.32538334  0.09659985  0.96214768     0.14500
C403        C  0.35221613  0.28469413  0.97190863    -0.18400
C404        C  0.36661388  0.31336510  0.96696001    -0.20500
C405        C  0.39264535  0.32621508  0.94861648     0.20100
C406        C  0.40433264  0.31002740  0.93519467    -0.03400
C407        C  0.39000025  0.28122652  0.94055339    -0.06500
C408        C  0.36372733  0.26846088  0.95883236     0.20400
C409        C  0.40185282  0.26517222  0.92733984     0.18600
C410        C  0.42767364  0.27788535  0.90858157    -0.18000
C411        C  0.44166110  0.30632275  0.90281668    -0.20200
C412        C  0.43016636  0.32252000  0.91601858     0.20100
C413        C  0.44379242  0.35086876  0.90981841    -0.33200
C414        C  0.43219561  0.36701598  0.92290897     0.02500
C415        C  0.40690622  0.35479170  0.94278042    -0.24600
C416        C  0.34937579  0.23967042  0.96349971    -0.29100
C417        C  0.36122402  0.22365023  0.95063020     0.06400
C418        C  0.38755384  0.23661038  0.93280014    -0.27800
H419        H  0.33205883  0.27520763  0.98596659     0.11100
H420        H  0.35727379  0.32544460  0.97724926     0.12300
H421        H  0.43695396  0.26577688  0.89815728     0.11300
H422        H  0.46145150  0.31564328  0.88798928     0.10600
H423        H  0.46327554  0.36033396  0.89436285     0.16000
H424        H  0.39772982  0.36717528  0.95239201     0.11900
H425        H  0.32908309  0.22976186  0.97728637     0.14700
H426        H  0.39664338  0.22430511  0.92241337     0.14500
C427        C  0.21000400  0.14005921  0.98129750    -0.18400
C428        C  0.18150086  0.12588900  0.97529297    -0.20500
C429        C  0.16936168  0.10090511  0.95503170     0.20100
C430        C  0.18592834  0.08966134  0.94153825    -0.03400
C431        C  0.21450905  0.10365747  0.94812294    -0.06500
C432        C  0.22677592  0.12931210  0.96748739     0.20400
C433        C  0.23099779  0.09239526  0.93443300     0.18600
C434        C  0.21882674  0.06722681  0.91461496    -0.18000
C435        C  0.19068880  0.05366498  0.90757996    -0.20200
C436        C  0.17418247  0.06486584  0.92060487     0.20100
C437        C  0.14637876  0.05211832  0.91226595    -0.33200
C438        C  0.12991975  0.06345262  0.92503914     0.00700
C439        C  0.14125157  0.08743208  0.94711386    -0.24600
C440        C  0.25572127  0.14409858  0.97179722    -0.29100
C441        C  0.27230088  0.13316850  0.95759969     0.06400
C442        C  0.25960770  0.10695549  0.93977861    -0.27800
H443        H  0.21901813  0.15962871  0.99639243     0.11100
H444        H  0.16909870  0.13480392  0.98589716     0.12300
H445        H  0.23124839  0.05834963  0.90392922     0.11300
H446        H  0.18192288  0.03458235  0.89159590     0.10600
H447        H  0.13761825  0.03354506  0.89540007     0.16000
H448        H  0.12863758  0.09633634  0.95682902     0.11900
H449        H  0.26543235  0.16425767  0.98571596     0.14700
H450        H  0.27231268  0.09853420  0.92851911     0.14500
C451        C  0.34623321  0.65143505  0.95341811     0.79700
N452        N  0.31773217  0.63661814  0.95629042    -0.78600
C453        C  0.30315178  0.64980666  0.95865168     0.82100
N454        N  0.31732824  0.67816169  0.95789335    -0.78600
C455        C  0.34584990  0.69319698  0.95454347     0.82200
N456        N  0.36011515  0.67969180  0.95218286    -0.80300
C457        C  0.34528241  0.65058626  0.45059829     0.79700
N458        N  0.31684268  0.63597605  0.45406905    -0.78600
C459        C  0.30237592  0.64930416  0.45759216     0.82100
N460        N  0.31666448  0.67774814  0.45748636    -0.78600
C461        C  0.34523014  0.69270246  0.45372854     0.82200
N462        N  0.35930723  0.67892678  0.45017300    -0.80300
C463        C  0.15306451  0.84329141  0.79426626     0.79700
N464        N  0.13873352  0.81499708  0.79580850    -0.78600
C465        C  0.15254559  0.80112287  0.79450024     0.82100
N466        N  0.18105721  0.81588198  0.79185515    -0.78600
C467        C  0.19579894  0.84420548  0.79053478     0.82200
N468        N  0.18163308  0.85779015  0.79185956    -0.80300
C469        C  0.15336914  0.84311966  0.30205397     0.79700
N470        N  0.18165133  0.85771166  0.30359711    -0.78600
C471        C  0.19600350  0.84432704  0.30063947     0.82100
N472        N  0.18182022  0.81592189  0.29635403    -0.78600
C473        C  0.15340651  0.80087705  0.29516114     0.82200
N474        N  0.13932831  0.81466071  0.29810633    -0.80300
N475        N  0.48097617  0.99184747  0.95639279    -0.06600
N476        N  0.47469488  0.98109015  0.98555297    -0.58800
N477        N  0.48131935  0.54063659  0.91694709    -0.06300
N478        N  0.47751579  0.56201402  0.92079618    -0.60900
N479        N  0.45705129  0.51676784  0.91710074    -0.05900
N480        N  0.43619751  0.52139915  0.92128879    -0.58700
N481        N  0.00540761  0.51561756  0.95622167    -0.05600
N482        N  0.01629711  0.52136995  0.98518969    -0.61200
C483        C  0.49696722  0.99960148  0.00323140     0.95500
C484        C  0.44927508  0.54970288  0.92345139     0.95300
N485        N  0.04489263  0.55836158  0.84153065    -0.06800
N486        N  0.05592868  0.57812744  0.82022449    -0.59300
N487        N  0.06102183  0.54275535  0.90853686    -0.04900
N488        N  0.08098608  0.55430314  0.92957877    -0.60600
N489        N  0.06919442  0.53382475  0.88075217    -0.06900
N490        N  0.09470968  0.53877060  0.88249470    -0.59600
N491        N  0.03587546  0.56645415  0.86931939    -0.04600
N492        N  0.04011373  0.59162185  0.86730431    -0.60700
Mn493      Mn  0.02120542  0.54194828  0.91336234     1.18400
C494        C  0.05239204  0.59852600  0.83650724     0.97600
C495        C  0.10174891  0.55138440  0.91311942     0.98300
N496        N  0.42997777  0.96148410  0.86937701    -0.06900
N497        N  0.40433172  0.95621668  0.86741045    -0.63200
N498        N  0.46307441  0.92865386  0.88092662    -0.05700
N499        N  0.45813252  0.90318174  0.88219764    -0.63900
N500        N  0.45371365  0.93642067  0.90866725    -0.06400
N501        N  0.44177500  0.91606099  0.92929234    -0.63500
N502        N  0.43828673  0.95239309  0.84180549    -0.05300
N503        N  0.41830641  0.94037771  0.82078755    -0.64100
Mn504      Mn  0.45476206  0.97637286  0.91350592     1.10700
C505        C  0.39743380  0.94326783  0.83688496     0.98800
C506        C  0.44504743  0.89563798  0.91249072     0.98900
N507        N  0.04236532  0.97849389  0.83375501    -0.06400
N508        N  0.06336207  0.97406482  0.82990007    -0.61800
N509        N  0.49385457  0.97896507  0.79432254    -0.05700
N510        N  0.48324781  0.97242462  0.76511151    -0.58500
N511        N  0.01813210  0.50285389  0.79399466    -0.07000
N512        N  0.02456810  0.51299186  0.76444862    -0.61300
N513        N  0.01817289  0.95454228  0.83401891    -0.06000
N514        N  0.02220122  0.93330080  0.83048690    -0.58500
Mn515      Mn  0.04429282  0.51869063  0.83691014     1.20200
Mn516      Mn  0.47811393  0.95313869  0.83726029     1.10100
Cl517      Cl  0.49958782  0.99754092  0.87526576    -0.86500
C518        C  0.05048844  0.94578136  0.82799402     0.95800
C519        C  0.50254637  0.99389355  0.74672901     0.95600
N520        N  0.48086745  0.99209833  0.45647345    -0.06600
N521        N  0.47430589  0.98122761  0.48557128    -0.58800
N522        N  0.48104300  0.54066377  0.41577660    -0.06300
N523        N  0.47670083  0.56163599  0.41747337    -0.60900
N524        N  0.45703799  0.51655766  0.41613134    -0.05900
N525        N  0.43583142  0.52057574  0.41817514    -0.58700
N526        N  0.00491714  0.51622526  0.45671848    -0.05600
N527        N  0.01529012  0.52215607  0.48602746    -0.61200
C528        C  0.49602521  0.00009464  0.50374890     0.95500
C529        C  0.44838895  0.54877789  0.41892484     0.95300
N530        N  0.04579075  0.55847627  0.34169167    -0.06800
N531        N  0.05713484  0.57800565  0.32006841    -0.59300
N532        N  0.06077543  0.54304980  0.40992086    -0.04900
N533        N  0.08000066  0.55367286  0.43182910    -0.60600
N534        N  0.06922699  0.53398314  0.38249216    -0.06900
N535        N  0.09418143  0.53791599  0.38530574    -0.59600
N536        N  0.03650513  0.56683195  0.36905675    -0.04600
N537        N  0.04093544  0.59202458  0.36636130    -0.60700
Mn538      Mn  0.02114091  0.54242105  0.41351900     1.18400
C539        C  0.05353807  0.59857116  0.33558403     0.97600
C540        C  0.10058506  0.55004385  0.41621646     0.98300
N541        N  0.43155155  0.96224572  0.36938401    -0.06900
N542        N  0.40668126  0.95869486  0.36757861    -0.63200
N543        N  0.46359493  0.92862733  0.38135313    -0.05700
N544        N  0.45872719  0.90318659  0.38303904    -0.63900
N545        N  0.45435361  0.93661534  0.40901689    -0.06400
N546        N  0.44248860  0.91644813  0.42991174    -0.63500
N547        N  0.43950465  0.95321665  0.34151532    -0.05300
N548        N  0.41977031  0.94286894  0.32024306    -0.64100
Mn549      Mn  0.45539109  0.97655560  0.41339086     1.10700
C550        C  0.39957823  0.94678337  0.33682985     0.98800
C551        C  0.44574250  0.89590056  0.41346954     0.98900
N552        N  0.04341178  0.97882984  0.33593841    -0.06400
N553        N  0.06444262  0.97460421  0.33469353    -0.61800
N554        N  0.49570702  0.97908966  0.29419048    -0.05700
N555        N  0.48575693  0.97232217  0.26455612    -0.58500
N556        N  0.02010984  0.50286603  0.29404228    -0.07000
N557        N  0.02732029  0.51261901  0.26417659    -0.61300
N558        N  0.01927933  0.95481485  0.33569048    -0.06000
N559        N  0.02339767  0.93371899  0.33438533    -0.58500
Mn560      Mn  0.04529640  0.51889175  0.33793516     1.20200
Mn561      Mn  0.47917129  0.95330745  0.33749176     1.10100
Cl562      Cl  0.50026122  0.99780722  0.37555136    -0.86500
C563        C  0.05166460  0.94636837  0.33380186     0.95800
C564        C  0.50559899  0.99345332  0.24606999     0.95600
C565        C  0.45139373  0.95625329  0.64434458    -0.18400
C566        C  0.45068643  0.95679459  0.61020943    -0.20500
C567        C  0.47430675  0.97672616  0.59172451     0.20100
C568        C  0.49889468  0.99627732  0.60779890    -0.03400
C569        C  0.49959667  0.99575714  0.64223037    -0.06500
C570        C  0.47573279  0.97565156  0.66059392     0.20400
C571        C  0.02417756  0.51541328  0.65825825     0.18600
C572        C  0.04784076  0.53521614  0.63977755    -0.18000
C573        C  0.04713689  0.53575494  0.60570429    -0.20200
C574        C  0.02275612  0.51648357  0.58952676     0.20100
C575        C  0.02177013  0.51728255  0.55546930    -0.33200
C576        C  0.49728806  0.99809132  0.53932119     0.00700
C577        C  0.47371439  0.97766754  0.55754890    -0.24600
C578        C  0.47669085  0.97529022  0.69482418    -0.29100
C579        C  0.50115209  0.99488263  0.71092290     0.06400
C580        C  0.02473774  0.51491503  0.69246071    -0.27800
H581        H  0.43288185  0.94067947  0.65804867     0.11100
H582        H  0.43162003  0.94165411  0.59827262     0.12300
H583        H  0.06690210  0.55037399  0.65171040     0.11300
H584        H  0.06564526  0.55134447  0.59201668     0.10600
H585        H  0.04002941  0.53300441  0.54156939     0.16000
H586        H  0.45472058  0.96283075  0.54528170     0.11900
H587        H  0.45842700  0.95974911  0.70890414     0.14700
H588        H  0.04371618  0.52995585  0.70463785     0.14500
C589        C  0.45200053  0.96184401  0.14601259    -0.18400
C590        C  0.45085061  0.96248607  0.11202849    -0.20500
C591        C  0.47533563  0.97924248  0.09230306     0.20100
C592        C  0.50127208  0.99551196  0.10696543    -0.03400
C593        C  0.50243007  0.99488822  0.14131355    -0.06500
C594        C  0.47765465  0.97797852  0.16090107     0.20400
C595        C  0.02832063  0.01131155  0.15606440     0.18600
C596        C  0.05285166  0.02783575  0.13624461    -0.18000
C597        C  0.05169832  0.02848544  0.10223091    -0.20200
C598        C  0.02599764  0.01258786  0.08738954     0.20100
C599        C  0.02452660  0.01366173  0.05343136    -0.33200
C600        C  0.49870978  0.99759884  0.03870776     0.00700
C601        C  0.47427404  0.98022251  0.05826569    -0.24600
C602        C  0.47892690  0.97758795  0.19503700    -0.29100
C603        C  0.50456376  0.99420069  0.21003005     0.06400
C604        C  0.02918881  0.01100050  0.19035460    -0.27800
H605        H  0.43277904  0.94878402  0.16069062     0.11100
H606        H  0.43075846  0.94992501  0.10118072     0.12300
H607        H  0.07293489  0.04043156  0.14710203     0.11300
H608        H  0.07090949  0.04158610  0.08755907     0.10600
H609        H  0.04345658  0.02701419  0.03846432     0.16000
H610        H  0.45427784  0.96790616  0.04713983     0.11900
H611        H  0.45987710  0.96456778  0.21002826     0.14700
H612        H  0.04907428  0.02362284  0.20167277     0.14500
C613        C  0.15295426  0.71279469  0.29288147    -0.18400
C614        C  0.13881073  0.68428896  0.29850840    -0.20500
C615        C  0.10969429  0.66924242  0.30608682     0.20100
C616        C  0.09452740  0.68283853  0.30718567    -0.03400
C617        C  0.10876682  0.71152284  0.30101732    -0.06500
C618        C  0.13818171  0.72666277  0.29447360     0.20400
C619        C  0.09371231  0.72525196  0.30256381     0.18600
C620        C  0.06447710  0.71000835  0.30938590    -0.18000
C621        C  0.05041398  0.68168328  0.31604725    -0.20200
C622        C  0.06530854  0.66803882  0.31558184     0.20100
C623        C  0.05172921  0.64014674  0.32428328    -0.33200
C624        C  0.06688483  0.62674302  0.32352255     0.00700
C625        C  0.09563067  0.64109613  0.31364065    -0.24600
C626        C  0.15245663  0.75560301  0.29091243    -0.29100
C627        C  0.13778916  0.76976112  0.29396638     0.06400
C628        C  0.10827156  0.75419398  0.29865983    -0.27800
H629        H  0.17554036  0.72411439  0.28782334     0.11100
H630        H  0.15073994  0.67415068  0.29763234     0.12300
H631        H  0.05257598  0.72019595  0.31047382     0.11300
H632        H  0.02795468  0.67057435  0.32211055     0.10600
H633        H  0.02950915  0.62893119  0.33193036     0.16000
H634        H  0.10729858  0.63073243  0.31347380     0.11900
H635        H  0.17514383  0.76723215  0.28691964     0.14700
H636        H  0.09665726  0.76475530  0.30084547     0.14500
C637        C  0.31923075  0.87395344  0.27515283    -0.18400
C638        C  0.29030891  0.85861943  0.27149670    -0.20500
C639        C  0.27289047  0.86717745  0.28935165     0.20100
C640        C  0.28478694  0.89170580  0.31072172    -0.03400
C641        C  0.31389423  0.90697201  0.31471907    -0.06500
C642        C  0.33118166  0.89795065  0.29697171     0.20400
C643        C  0.32555626  0.93081370  0.33712026     0.18600
C644        C  0.30825413  0.93969023  0.35457370    -0.18000
C645        C  0.27948246  0.92481700  0.35020821    -0.20200
C646        C  0.26754150  0.90071087  0.32855045     0.20100
C647        C  0.23862277  0.88528610  0.32466564    -0.33200
C648        C  0.22658001  0.86059090  0.30384643     0.00700
C649        C  0.24378403  0.85156113  0.28639248    -0.24600
C650        C  0.35987562  0.91240708  0.30236743    -0.29100
C651        C  0.37120823  0.93521079  0.32596251     0.06400
C652        C  0.35411385  0.94474003  0.34259035    -0.27800
H653        H  0.33218362  0.86673911  0.26136130     0.11100
H654        H  0.28152724  0.83993081  0.25485749     0.12300
H655        H  0.31692862  0.95796760  0.37185929     0.11300
H656        H  0.26650201  0.93196650  0.36409671     0.10600
H657        H  0.22535982  0.89216912  0.33842204     0.16000
H658        H  0.23454413  0.83259980  0.27019030     0.11900
H659        H  0.37296663  0.90490275  0.28969591     0.14700
H660        H  0.36284992  0.96243459  0.36072325     0.14500
C661        C  0.05077296  0.85780080  0.32623350    -0.18400
C662        C  0.06491922  0.84328660  0.32093244    -0.20500
C663        C  0.09429082  0.85789765  0.31595412     0.20100
C664        C  0.10958731  0.88745864  0.31650029    -0.03400
C665        C  0.09532374  0.90211057  0.32184879    -0.06500
C666        C  0.06576470  0.88717379  0.32658423     0.20400
C667        C  0.11062326  0.93166588  0.32224629     0.18600
C668        C  0.14001046  0.94630042  0.31749345    -0.18000
C669        C  0.15414314  0.93177885  0.31221352    -0.20200
C670        C  0.13911941  0.90238992  0.31165422     0.20100
C671        C  0.15314467  0.88771061  0.30651604    -0.33200
C672        C  0.13810350  0.85822510  0.30615790     0.00700
C673        C  0.10862131  0.84347697  0.31065508    -0.24600
C674        C  0.05168591  0.90182974  0.33115049    -0.29100
C675        C  0.06675398  0.93122504  0.33095733     0.06400
C676        C  0.09624357  0.94602769  0.32694589    -0.27800
H677        H  0.02807821  0.84603457  0.32989803     0.11100
H678        H  0.05286413  0.82060064  0.32068722     0.12300
H679        H  0.15206568  0.96898647  0.31772722     0.11300
H680        H  0.17684141  0.94354284  0.30855387     0.10600
H681        H  0.17585479  0.89935471  0.30293240     0.16000
H682        H  0.09679741  0.82078906  0.31051921     0.11900
H683        H  0.02896097  0.89030384  0.33442509     0.14700
H684        H  0.10800588  0.96870702  0.32687399     0.14500
C685        C  0.06517075  0.71318369  0.82547546    -0.18400
C686        C  0.05101864  0.68468239  0.83125742    -0.20500
C687        C  0.06487694  0.66981907  0.82487731     0.20100
C688        C  0.09316914  0.68370673  0.81213323    -0.03400
C689        C  0.10758045  0.71256006  0.80690265    -0.06500
C690        C  0.09350379  0.72735530  0.81358908     0.20400
C691        C  0.13618088  0.72666461  0.79547813     0.18600
C692        C  0.14998253  0.71176131  0.78885357    -0.18000
C693        C  0.13559575  0.68308005  0.79354627    -0.20200
C694        C  0.10725901  0.66891088  0.80528486     0.20100
C695        C  0.09301285  0.64040762  0.81124528    -0.33200
C696        C  0.06530238  0.62687481  0.82523068     0.00700
C697        C  0.05123910  0.64153283  0.83182038    -0.24600
C698        C  0.10811534  0.75612978  0.80873891    -0.29100
C699        C  0.13678055  0.77044803  0.79784184     0.06400
C700        C  0.15059243  0.75547984  0.79119285    -0.27800
H701        H  0.05405712  0.72423826  0.83072842     0.11100
H702        H  0.02928456  0.67430779  0.84093870     0.12300
H703        H  0.17195016  0.72231427  0.78011548     0.11300
H704        H  0.14673855  0.67204999  0.78839778     0.10600
H705        H  0.10395380  0.62913279  0.80673720     0.16000
H706        H  0.02985583  0.63098620  0.84277647     0.11900
H707        H  0.09728083  0.76746093  0.81417188     0.14700
H708        H  0.17263049  0.76624550  0.78270744     0.14500
C709        C  0.28473043  0.93202346  0.81586957    -0.18400
C710        C  0.31281304  0.94574686  0.82342563    -0.20500
C711        C  0.32714051  0.93133021  0.81980790     0.20100
C712        C  0.31326899  0.90299465  0.80752226    -0.03400
C713        C  0.28476821  0.88900705  0.80045901    -0.06500
C714        C  0.27037972  0.90354456  0.80497316     0.20400
C715        C  0.27046996  0.86029262  0.78989863     0.18600
C716        C  0.28504641  0.84609212  0.78526974    -0.18000
C717        C  0.31341401  0.86006582  0.79172420    -0.20200
C718        C  0.32761958  0.88840883  0.80323557     0.20100
C719        C  0.35566395  0.90222565  0.81140616    -0.33200
C720        C  0.36912075  0.93004118  0.82498805     0.00700
C721        C  0.35484656  0.94452349  0.82899694    -0.24600
C722        C  0.24165198  0.88913207  0.79977051    -0.29100
C723        C  0.22687083  0.86015491  0.79095730     0.06400
C724        C  0.24165136  0.84606565  0.78526389    -0.27800
H725        H  0.27402866  0.94352236  0.81933980     0.11100
H726        H  0.32322157  0.96756060  0.83253804     0.12300
H727        H  0.27439970  0.82405736  0.77708941     0.11300
H728        H  0.32409773  0.84854803  0.78833504     0.10600
H729        H  0.36663450  0.89098263  0.80862771     0.16000
H730        H  0.36531844  0.96601150  0.83938075     0.11900
H731        H  0.23056367  0.90024984  0.80418809     0.14700
H732        H  0.23058783  0.82381472  0.77810762     0.14500
C733        C  0.06455411  0.84312084  0.81606188    -0.18400
C734        C  0.05023182  0.85746951  0.82120033    -0.20500
C735        C  0.06481626  0.88661508  0.81887894     0.20100
C736        C  0.09409862  0.90142558  0.81107863    -0.03400
C737        C  0.10853574  0.88693378  0.80582446    -0.06500
C738        C  0.09369634  0.85767298  0.80849028     0.20400
C739        C  0.13783874  0.90177623  0.79825159     0.18600
C740        C  0.15237687  0.93087889  0.79560515    -0.18000
C741        C  0.13808645  0.94524708  0.80084687    -0.20200
C742        C  0.10900852  0.93074665  0.80877908     0.20100
C743        C  0.09461656  0.94507500  0.81455824    -0.33200
C744        C  0.06546361  0.93047483  0.82235850     0.00700
C745        C  0.05067560  0.90122574  0.82434821    -0.24600
C746        C  0.10828946  0.84352481  0.80399212    -0.29100
C747        C  0.13762746  0.85822774  0.79707473     0.06400
C748        C  0.15216425  0.88735218  0.79389977    -0.27800
H749        H  0.05284785  0.82063994  0.81819505     0.11100
H750        H  0.02775506  0.84578131  0.82715631     0.12300
H751        H  0.17486208  0.94257811  0.78972447     0.11300
H752        H  0.14981505  0.96774512  0.79886842     0.10600
H753        H  0.10612101  0.96760349  0.81280824     0.16000
H754        H  0.02819234  0.88984565  0.83035918     0.11900
H755        H  0.09677377  0.82108892  0.80648265     0.14700
H756        H  0.17470885  0.89892244  0.78841515     0.14500
C757        C  0.44735664  0.63573759  0.41718912    -0.18400
C758        C  0.43298119  0.65003081  0.42195091    -0.20500
C759        C  0.40410808  0.63572876  0.43122252     0.20100
C760        C  0.38949009  0.60666316  0.43534732    -0.03400
C761        C  0.40396712  0.59222309  0.43044872    -0.06500
C762        C  0.43308386  0.60689378  0.42157392     0.20400
C763        C  0.38934338  0.56316790  0.43467839     0.18600
C764        C  0.36042253  0.54880347  0.44361780    -0.18000
C765        C  0.34609252  0.56312692  0.44853794    -0.20200
C766        C  0.36044398  0.59203664  0.44453130     0.20100
C767        C  0.34624160  0.60654954  0.44959595    -0.33200
C768        C  0.36064817  0.63557151  0.44567831     0.00700
C769        C  0.38962577  0.64998919  0.43647119    -0.24600
C770        C  0.44744891  0.59251915  0.41755534    -0.29100
C771        C  0.43303812  0.56364030  0.42206114     0.06400
C772        C  0.40394292  0.54904641  0.43023992    -0.27800
H773        H  0.46968095  0.64728005  0.41024111     0.11100
H774        H  0.44449063  0.67232519  0.41854657     0.12300
H775        H  0.34890163  0.52649858  0.44696490     0.11300
H776        H  0.32377916  0.55159547  0.45555434     0.10600
H777        H  0.32392953  0.59517357  0.45668408     0.16000
H778        H  0.40094192  0.67229891  0.43316468     0.11900
H779        H  0.46985677  0.60382947  0.41102488     0.14700
H780        H  0.39271937  0.52677038  0.43375072     0.14500
C781        C  0.36492446  0.81263203  0.46358435    -0.18400
C782        C  0.35038476  0.78388207  0.46819609    -0.20500
C783        C  0.36288053  0.76810109  0.45759057     0.20100
C784        C  0.39040233  0.78149016  0.44239070    -0.03400
C785        C  0.40491732  0.81039646  0.43730352    -0.06500
C786        C  0.39211362  0.82604879  0.44799475     0.20400
C787        C  0.43198703  0.82348010  0.42087518     0.18600
C788        C  0.44463585  0.80781731  0.41059221    -0.18000
C789        C  0.43044943  0.77930055  0.41615307    -0.20200
C790        C  0.40326795  0.76592140  0.43175225     0.20100
C791        C  0.38859039  0.73715297  0.43638494    -0.33200
C792        C  0.36092826  0.72346163  0.45090926     0.00700
C793        C  0.34824461  0.73913868  0.46153867    -0.24600
C794        C  0.40640432  0.85462182  0.44201666    -0.29100
C795        C  0.43283657  0.86737411  0.42446940     0.06400
C796        C  0.44561600  0.85180376  0.41424736    -0.27800
H797        H  0.35474427  0.82430247  0.47180913     0.11100
H798        H  0.32928837  0.77395390  0.47993528     0.12300
H799        H  0.46542789  0.81758006  0.39802567     0.11300
H800        H  0.44059833  0.76760958  0.40783470     0.10600
H801        H  0.39853322  0.72529325  0.42783413     0.16000
H802        H  0.32698946  0.72881761  0.47285603     0.11900
H803        H  0.39637006  0.86655204  0.44945788     0.14700
H804        H  0.46600366  0.86167991  0.40064499     0.14500
C805        C  0.18898844  0.55157764  0.41062963    -0.18400
C806        C  0.21737307  0.56556813  0.41666603    -0.20500
C807        C  0.22975065  0.59103571  0.43592427     0.20100
C808        C  0.21323458  0.60208290  0.45025402    -0.03400
C809        C  0.18442770  0.58766197  0.44468136    -0.06500
C810        C  0.17248229  0.56266555  0.42409818     0.20400
C811        C  0.16786675  0.59880214  0.45859847     0.18600
C812        C  0.18017138  0.62394774  0.47854191    -0.18000
C813        C  0.20888003  0.63851251  0.48358682    -0.20200
C814        C  0.22569876  0.62800592  0.46910042     0.20100
C815        C  0.25485299  0.64328959  0.47220899    -0.33200
C816        C  0.27144518  0.63257687  0.45732012     0.00700
C817        C  0.25857259  0.60609745  0.44004640    -0.24600
C818        C  0.14456381  0.54979995  0.41622481    -0.29100
C819        C  0.12827557  0.56132939  0.42896564     0.06400
C820        C  0.13966638  0.58524604  0.45109327    -0.27800
H821        H  0.18006207  0.53233338  0.39492482     0.11100
H822        H  0.22981959  0.55683568  0.40555468     0.12300
H823        H  0.16775340  0.63275328  0.48949985     0.11300
H824        H  0.21802339  0.65824383  0.49835570     0.10600
H825        H  0.26467074  0.66359773  0.48578304     0.16000
H826        H  0.27123137  0.59776580  0.42832255     0.11900
H827        H  0.13570793  0.53122110  0.39936512     0.14700
H828        H  0.12713876  0.59424074  0.46083420     0.14500
C829        C  0.43468111  0.65166077  0.92863535    -0.18400
C830        C  0.44914913  0.63745320  0.92458468    -0.20500
C831        C  0.43490715  0.60867359  0.92938006     0.20100
C832        C  0.40583461  0.59409974  0.93853471    -0.03400
C833        C  0.39127161  0.60843927  0.94270401    -0.06500
C834        C  0.40574870  0.63733415  0.93763625     0.20400
C835        C  0.36218726  0.59378806  0.95169821     0.18600
C836        C  0.34797639  0.56507179  0.95673778    -0.18000
C837        C  0.36238527  0.55085279  0.95255232    -0.20200
C838        C  0.39123307  0.56513022  0.94326775     0.20100
C839        C  0.40565089  0.55086038  0.93835775    -0.33200
C840        C  0.43452220  0.56516262  0.92899908     0.00700
C841        C  0.44911561  0.59412778  0.92488359    -0.24600
C842        C  0.39100583  0.65133271  0.94146141    -0.29100
C843        C  0.36191872  0.63679214  0.95016320     0.06400
C844        C  0.34774011  0.60802149  0.95532178    -0.27800
H845        H  0.44611016  0.67384828  0.92463279     0.11100
H846        H  0.47145854  0.64894823  0.91752042     0.12300
H847        H  0.32565990  0.55355936  0.96373951     0.11300
H848        H  0.35092240  0.52863461  0.95638761     0.10600
H849        H  0.39436177  0.52857733  0.94183672     0.16000
H850        H  0.47141623  0.60525297  0.91768179     0.11900
H851        H  0.40217584  0.67348835  0.93730889     0.14700
H852        H  0.32538358  0.59659991  0.96214743     0.14500
C853        C  0.35221673  0.78469441  0.97190810    -0.18400
C854        C  0.36661407  0.81336520  0.96695983    -0.20500
C855        C  0.39264552  0.82621514  0.94861627     0.20100
C856        C  0.40433278  0.81002746  0.93519452    -0.03400
C857        C  0.39000043  0.78122665  0.94055323    -0.06500
C858        C  0.36372757  0.76846101  0.95883210     0.20400
C859        C  0.40185293  0.76517232  0.92733981     0.18600
C860        C  0.42767364  0.77788562  0.90858176    -0.18000
C861        C  0.44166124  0.80632285  0.90281662    -0.20200
C862        C  0.43016649  0.82252009  0.91601842     0.20100
C863        C  0.44379261  0.85086882  0.90981810    -0.33200
C864        C  0.43219574  0.86701600  0.92290874     0.02500
C865        C  0.40690649  0.85479155  0.94278012    -0.24600
C866        C  0.34937638  0.73967075  0.96349917    -0.29100
C867        C  0.36122418  0.72365032  0.95063005     0.06400
C868        C  0.38755401  0.73661054  0.93280013    -0.27800
H869        H  0.33205901  0.77520769  0.98596637     0.11100
H870        H  0.35727394  0.82544461  0.97724917     0.12300
H871        H  0.43695410  0.76577700  0.89815752     0.11300
H872        H  0.46145156  0.81564330  0.88798935     0.10600
H873        H  0.46327562  0.86033394  0.89436258     0.16000
H874        H  0.39772999  0.86717529  0.95239193     0.11900
H875        H  0.32908325  0.72976200  0.97728608     0.14700
H876        H  0.39664364  0.72430525  0.92241338     0.14500
C877        C  0.21000386  0.64005873  0.98129683    -0.18400
C878        C  0.18150086  0.62588903  0.97529275    -0.20500
C879        C  0.16936177  0.60090513  0.95503150     0.20100
C880        C  0.18592845  0.58966138  0.94153819    -0.03400
C881        C  0.21450914  0.60365741  0.94812277    -0.06500
C882        C  0.22677597  0.62931202  0.96748710     0.20400
C883        C  0.23099788  0.59239521  0.93443295     0.18600
C884        C  0.21882664  0.56722675  0.91461509    -0.18000
C885        C  0.19068876  0.55366492  0.90758007    -0.20200
C886        C  0.17418254  0.56486588  0.92060491     0.20100
C887        C  0.14637903  0.55211873  0.91226627    -0.33200
C888        C  0.12991985  0.56345272  0.92503904     0.00700
C889        C  0.14125182  0.58743210  0.94711364    -0.24600
C890        C  0.25572121  0.64409828  0.97179674    -0.29100
C891        C  0.27230097  0.63316846  0.95759940     0.06400
C892        C  0.25960803  0.60695526  0.93977824    -0.27800
H893        H  0.21901817  0.65962870  0.99639208     0.11100
H894        H  0.16909877  0.63480394  0.98589682     0.12300
H895        H  0.23124826  0.55834943  0.90392940     0.11300
H896        H  0.18192276  0.53458226  0.89159614     0.10600
H897        H  0.13761838  0.53354514  0.89540011     0.16000
H898        H  0.12863775  0.59633647  0.95682886     0.11900
H899        H  0.26543241  0.66425767  0.98571562     0.14700
H900        H  0.27231277  0.59853411  0.92851899     0.14500
C901        C  0.84623322  0.15143502  0.95341806     0.79700
N902        N  0.81773219  0.13661807  0.95629035    -0.78600
C903        C  0.80315174  0.14980654  0.95865168     0.82100
N904        N  0.81732824  0.17816158  0.95789338    -0.78600
C905        C  0.84584983  0.19319690  0.95454351     0.82200
N906        N  0.86011518  0.17969178  0.95218284    -0.80300
C907        C  0.84528228  0.15058609  0.45059814     0.79700
N908        N  0.81684264  0.13597595  0.45406888    -0.78600
C909        C  0.80237586  0.14930401  0.45759216     0.82100
N910        N  0.81666447  0.17774804  0.45748652    -0.78600
C911        C  0.84523007  0.19270237  0.45372874     0.82200
N912        N  0.85930722  0.17892669  0.45017303    -0.80300
C913        C  0.65306456  0.34329160  0.79426618     0.79700
N914        N  0.63873367  0.31499728  0.79580842    -0.78600
C915        C  0.65254571  0.30112309  0.79450019     0.82100
N916        N  0.68105738  0.31588224  0.79185512    -0.78600
C917        C  0.69579903  0.34420579  0.79053472     0.82200
N918        N  0.68163314  0.35779038  0.79185949    -0.80300
C919        C  0.65336939  0.34311993  0.30205379     0.79700
N920        N  0.68165150  0.35771189  0.30359689    -0.78600
C921        C  0.69600372  0.34432731  0.30063929     0.82100
N922        N  0.68182032  0.31592215  0.29635397    -0.78600
C923        C  0.65340673  0.30087732  0.29516111     0.82200
N924        N  0.63932838  0.31466090  0.29810627    -0.80300
N925        N  0.98097623  0.49184751  0.95639286    -0.06600
N926        N  0.97469494  0.48109022  0.98555307    -0.58800
N927        N  0.98131950  0.04063665  0.91694708    -0.06300
N928        N  0.97751597  0.06201410  0.92079614    -0.60900
N929        N  0.95705141  0.01676791  0.91710075    -0.05900
N930        N  0.93619765  0.02139927  0.92128878    -0.58700
N931        N  0.50540755  0.01561753  0.95622163    -0.05600
N932        N  0.51629707  0.02136987  0.98518963    -0.61200
C933        C  0.99696729  0.49960160  0.00323149     0.95500
C934        C  0.94927533  0.04970305  0.92345136     0.95300
N935        N  0.54489259  0.05836172  0.84153074    -0.06800
N936        N  0.55592870  0.07812765  0.82022467    -0.59300
N937        N  0.56102177  0.04275540  0.90853685    -0.04900
N938        N  0.58098603  0.05430319  0.92957875    -0.60600
N939        N  0.56919436  0.03382484  0.88075213    -0.06900
N940        N  0.59470963  0.03877071  0.88249464    -0.59600
N941        N  0.53587539  0.06645424  0.86931949    -0.04600
N942        N  0.54011370  0.09162198  0.86730450    -0.60700
Mn943      Mn  0.52120533  0.04194830  0.91336236     1.18400
C944        C  0.55239207  0.09852620  0.83650746     0.97600
C945        C  0.60174889  0.05138449  0.91311936     0.98300
N946        N  0.92997781  0.46148401  0.86937710    -0.06900
N947        N  0.90433178  0.45621664  0.86741050    -0.63200
N948        N  0.96307444  0.42865380  0.88092682    -0.05700
N949        N  0.95813254  0.40318167  0.88219785    -0.63900
N950        N  0.95371366  0.43642063  0.90866742    -0.06400
N951        N  0.94177500  0.41606096  0.92929252    -0.63500
N952        N  0.93828676  0.45239298  0.84180559    -0.05300
N953        N  0.91830644  0.44037761  0.82078764    -0.64100
Mn954      Mn  0.95476211  0.47637283  0.91350600     1.10700
C955        C  0.89743385  0.44326776  0.83688502     0.98800
C956        C  0.94504741  0.39563797  0.91249098     0.98900
N957        N  0.54236526  0.47849396  0.83375503    -0.06400
N958        N  0.56336203  0.47406491  0.82990011    -0.61800
N959        N  0.99385459  0.47896489  0.79432259    -0.05700
N960        N  0.98324785  0.47242441  0.76511156    -0.58500
N961        N  0.51813207  0.00285407  0.79399464    -0.07000
N962        N  0.52456804  0.01299210  0.76444864    -0.61300
N963        N  0.51817284  0.45454233  0.83401893    -0.06000
N964        N  0.52220121  0.43330088  0.83048690    -0.58500
Mn965      Mn  0.54429279  0.01869076  0.83691012     1.20200
Mn966      Mn  0.97811394  0.45313858  0.83726044     1.10100
Cl967      Cl  0.99958785  0.49754084  0.87526581    -0.86500
C968        C  0.55048842  0.44578145  0.82799404     0.95800
C969        C  0.00254637  0.49389325  0.74672900     0.95600
N970        N  0.98086746  0.49209831  0.45647353    -0.06600
N971        N  0.97430592  0.48122757  0.48557134    -0.58800
N972        N  0.98104290  0.04066363  0.41577656    -0.06300
N973        N  0.97670072  0.06163583  0.41747320    -0.60900
N974        N  0.95703789  0.01655750  0.41613133    -0.05900
N975        N  0.93583133  0.02057556  0.41817501    -0.58700
N976        N  0.50491714  0.01622529  0.45671840    -0.05600
N977        N  0.51529008  0.02215613  0.48602741    -0.61200
C978        C  0.99602524  0.50009455  0.50374895     0.95500
C979        C  0.94838883  0.04877768  0.41892462     0.95300
N980        N  0.54579071  0.05847643  0.34169163    -0.06800
N981        N  0.55713479  0.07800583  0.32006841    -0.59300
N982        N  0.56077540  0.04304989  0.40992076    -0.04900
N983        N  0.58000063  0.05367297  0.43182901    -0.60600
N984        N  0.56922697  0.03398326  0.38249206    -0.06900
N985        N  0.59418145  0.03791616  0.38530563    -0.59600
N986        N  0.53650512  0.06683209  0.36905676    -0.04600
N987        N  0.54093544  0.09202474  0.36636137    -0.60700
Mn988      Mn  0.52114088  0.04242110  0.41351896     1.18400
C989        C  0.55353807  0.09857133  0.33558407     0.97600
C990        C  0.60058504  0.05004400  0.41621638     0.98300
N991        N  0.93155159  0.46224563  0.36938407    -0.06900
N992        N  0.90668132  0.45869481  0.36757862    -0.63200
N993        N  0.96359493  0.42862726  0.38135329    -0.05700
N994        N  0.95872718  0.40318651  0.38303924    -0.63900
N995        N  0.95435359  0.43661528  0.40901703    -0.06400
N996        N  0.94248856  0.41644807  0.42991188    -0.63500
N997        N  0.93950472  0.45321657  0.34151541    -0.05300
N998        N  0.91977041  0.44286889  0.32024311    -0.64100
Mn999      Mn  0.95539111  0.47655555  0.41339094     1.10700
C1000       C  0.89957831  0.44678334  0.33682982     0.98800
C1001       C  0.94574243  0.39590048  0.41346976     0.98900
N1002       N  0.54341182  0.47882996  0.33593833    -0.06400
N1003       N  0.56444267  0.47460433  0.33469339    -0.61800
N1004       N  0.99570712  0.47908954  0.29419056    -0.05700
N1005       N  0.98575705  0.47232204  0.26455616    -0.58500
N1006       N  0.52010974  0.00286616  0.29404218    -0.07000
N1007       N  0.52732016  0.01261915  0.26417650    -0.61300
N1008       N  0.51927937  0.45481496  0.33569039    -0.06000
N1009       N  0.52339771  0.43371909  0.33438517    -0.58500
Mn1010     Mn  0.54529636  0.01889190  0.33793505     1.20200
Mn1011     Mn  0.97917135  0.45330735  0.33749189     1.10100
Cl1012     Cl  0.00026124  0.49780712  0.37555146    -0.86500
C1013       C  0.55166462  0.44636851  0.33380167     0.95800
C1014       C  0.00559919  0.49345325  0.24607005     0.95600
C1015       C  0.95139362  0.45625301  0.64434467    -0.18400
C1016       C  0.95068651  0.45679450  0.61020946    -0.20500
C1017       C  0.97430682  0.47672599  0.59172451     0.20100
C1018       C  0.99889477  0.49627704  0.60779891    -0.03400
C1019       C  0.99959671  0.49575680  0.64223038    -0.06500
C1020       C  0.97573276  0.47565126  0.66059398     0.20400
C1021       C  0.52417747  0.01541366  0.65825829     0.18600
C1022       C  0.54784053  0.03521650  0.63977754    -0.18000
C1023       C  0.54713683  0.03575543  0.60570424    -0.20200
C1024       C  0.52275602  0.01648391  0.58952674     0.20100
C1025       C  0.52177016  0.01728296  0.55546919    -0.33200
C1026       C  0.99728812  0.49809114  0.53932121     0.00700
C1027       C  0.97371440  0.47766737  0.55754889    -0.24600
C1028       C  0.97669045  0.47528961  0.69482448    -0.29100
C1029       C  0.00115204  0.49488225  0.71092290     0.06400
C1030       C  0.52473793  0.01491562  0.69246088    -0.27800
H1031       H  0.93288185  0.44067936  0.65804862     0.11100
H1032       H  0.93162009  0.44165408  0.59827259     0.12300
H1033       H  0.56690187  0.05037442  0.65171048     0.11300
H1034       H  0.56564505  0.05134488  0.59201677     0.10600
H1035       H  0.54002928  0.03300473  0.54156940     0.16000
H1036       H  0.95472059  0.46283069  0.54528171     0.11900
H1037       H  0.95842688  0.45974883  0.70890417     0.14700
H1038       H  0.54371615  0.02995635  0.70463788     0.14500
C1039       C  0.95200077  0.46184402  0.14601256    -0.18400
C1040       C  0.95085058  0.46248598  0.11202850    -0.20500
C1041       C  0.97533575  0.47924254  0.09230317     0.20100
C1042       C  0.00127219  0.49551198  0.10696554    -0.03400
C1043       C  0.00243029  0.49488827  0.14131364    -0.06500
C1044       C  0.97765487  0.47797852  0.16090107     0.20400
C1045       C  0.52832067  0.51131169  0.15606423     0.18600
C1046       C  0.55285149  0.52783571  0.13624433    -0.18000
C1047       C  0.55169879  0.52848582  0.10223043    -0.20200
C1048       C  0.52599778  0.51258803  0.08738927     0.20100
C1049       C  0.52452717  0.51366217  0.05343069    -0.33200
C1050       C  0.99870991  0.49759900  0.03870787     0.00700
C1051       C  0.97427438  0.48022278  0.05826595    -0.24600
C1052       C  0.97892749  0.47758816  0.19503677    -0.29100
C1053       C  0.00456408  0.49420071  0.21003009     0.06400
C1054       C  0.52918870  0.51100057  0.19035445    -0.27800
H1055       H  0.93277917  0.44878388  0.16069068     0.11100
H1056       H  0.93075852  0.44992496  0.10118073     0.12300
H1057       H  0.57293492  0.54043161  0.14710202     0.11300
H1058       H  0.57090964  0.54158619  0.08755902     0.10600
H1059       H  0.54345659  0.52701423  0.03846404     0.16000
H1060       H  0.95427799  0.46790633  0.04713998     0.11900
H1061       H  0.95987742  0.46456776  0.21002823     0.14700
H1062       H  0.54907434  0.52362298  0.20167271     0.14500
C1063       C  0.65295459  0.21279511  0.29288205    -0.18400
C1064       C  0.63881061  0.18428941  0.29850904    -0.20500
C1065       C  0.60969439  0.16924271  0.30608724     0.20100
C1066       C  0.59452759  0.18283887  0.30718588    -0.03400
C1067       C  0.60876711  0.21152320  0.30101750    -0.06500
C1068       C  0.63818206  0.22666321  0.29447396     0.20400
C1069       C  0.59371257  0.22525222  0.30256380     0.18600
C1070       C  0.56447735  0.21000856  0.30938574    -0.18000
C1071       C  0.55041442  0.18168365  0.31604707    -0.20200
C1072       C  0.56530878  0.16803913  0.31558183     0.20100
C1073       C  0.55172988  0.14014726  0.32428310    -0.33200
C1074       C  0.56688499  0.12674325  0.32352269     0.00700
C1075       C  0.59563089  0.14109631  0.31364098    -0.24600
C1076       C  0.65245798  0.25560387  0.29091256    -0.29100
C1077       C  0.63778954  0.26976142  0.29396643     0.06400
C1078       C  0.60827206  0.25419408  0.29865971    -0.27800
H1079       H  0.67554038  0.22411452  0.28782421     0.11100
H1080       H  0.65073990  0.17415097  0.29763318     0.12300
H1081       H  0.55257607  0.22019608  0.31047356     0.11300
H1082       H  0.52795477  0.17057450  0.32211031     0.10600
H1083       H  0.52950932  0.12893145  0.33193024     0.16000
H1084       H  0.60729876  0.13073266  0.31347420     0.11900
H1085       H  0.67514430  0.26723253  0.28692002     0.14700
H1086       H  0.59665760  0.26475550  0.30084521     0.14500
C1087       C  0.81923089  0.37395341  0.27515297    -0.18400
C1088       C  0.79030923  0.35861985  0.27149723    -0.20500
C1089       C  0.77289065  0.36717761  0.28935168     0.20100
C1090       C  0.78478715  0.39170604  0.31072156    -0.03400
C1091       C  0.81389433  0.40697208  0.31471883    -0.06500
C1092       C  0.83118177  0.39795068  0.29697174     0.20400
C1093       C  0.82555638  0.43081381  0.33711985     0.18600
C1094       C  0.80825424  0.43969026  0.35457290    -0.18000
C1095       C  0.77948261  0.42481746  0.35020782    -0.20200
C1096       C  0.76754172  0.40071116  0.32855008     0.20100
C1097       C  0.73862322  0.38528637  0.32466507    -0.33200
C1098       C  0.72658025  0.36059115  0.30384618     0.00700
C1099       C  0.74378435  0.35156148  0.28639262    -0.24600
C1100       C  0.85987547  0.41240712  0.30236759    -0.29100
C1101       C  0.87120830  0.43521078  0.32596237     0.06400
C1102       C  0.85411371  0.44473966  0.34258954    -0.27800
H1103       H  0.83218367  0.36673896  0.26136161     0.11100
H1104       H  0.78152734  0.33993080  0.25485783     0.12300
H1105       H  0.81692901  0.45796800  0.37185865     0.11300
H1106       H  0.76650235  0.43196703  0.36409612     0.10600
H1107       H  0.72536016  0.39216953  0.33842148     0.16000
H1108       H  0.73454439  0.33259988  0.27019034     0.11900
H1109       H  0.87296665  0.40490260  0.28969603     0.14700
H1110       H  0.86284997  0.46243471  0.36072279     0.14500
C1111       C  0.55077280  0.35780079  0.32623280    -0.18400
C1112       C  0.56491926  0.34328659  0.32093175    -0.20500
C1113       C  0.59429097  0.35789786  0.31595367     0.20100
C1114       C  0.60958751  0.38745887  0.31650005    -0.03400
C1115       C  0.59532376  0.40211081  0.32184855    -0.06500
C1116       C  0.56576465  0.38717388  0.32658375     0.20400
C1117       C  0.61062337  0.43166620  0.32224630     0.18600
C1118       C  0.64001071  0.44630095  0.31749370    -0.18000
C1119       C  0.65414330  0.43177911  0.31221375    -0.20200
C1120       C  0.63911969  0.40239022  0.31165421     0.20100
C1121       C  0.65314591  0.38771138  0.30651588    -0.33200
C1122       C  0.63810387  0.35822544  0.30615768     0.00700
C1123       C  0.60862161  0.34347720  0.31065465    -0.24600
C1124       C  0.55168516  0.40182955  0.33115012    -0.29100
C1125       C  0.56675396  0.43122523  0.33095711     0.06400
C1126       C  0.59624394  0.44602869  0.32694590    -0.27800
H1127       H  0.52807823  0.34603456  0.32989708     0.11100
H1128       H  0.55286422  0.32060071  0.32068633     0.12300
H1129       H  0.65206588  0.46898667  0.31772761     0.11300
H1130       H  0.67684153  0.44354310  0.30855427     0.10600
H1131       H  0.67585523  0.39935510  0.30293254     0.16000
H1132       H  0.59679780  0.32078933  0.31051863     0.11900
H1133       H  0.52896090  0.39030398  0.33442440     0.14700
H1134       H  0.60800586  0.46870733  0.32687420     0.14500
C1135       C  0.56517077  0.21318394  0.82547521    -0.18400
C1136       C  0.55101887  0.18468268  0.83125719    -0.20500
C1137       C  0.56487708  0.16981933  0.82487742     0.20100
C1138       C  0.59316931  0.18370697  0.81213354    -0.03400
C1139       C  0.60758049  0.21256024  0.80690292    -0.06500
C1140       C  0.59350389  0.22735553  0.81358901     0.20400
C1141       C  0.63618093  0.22666480  0.79547861     0.18600
C1142       C  0.64998219  0.21176134  0.78885449    -0.18000
C1143       C  0.63559598  0.18308029  0.79354705    -0.20200
C1144       C  0.60725918  0.16891111  0.80528545     0.20100
C1145       C  0.59301307  0.14040789  0.81124585    -0.33200
C1146       C  0.56530253  0.12687508  0.82523101     0.00700
C1147       C  0.55123935  0.14153317  0.83182047    -0.24600
C1148       C  0.60811535  0.25612999  0.80873877    -0.29100
C1149       C  0.63678064  0.27044824  0.79784190     0.06400
C1150       C  0.65059200  0.25547977  0.79119342    -0.27800
H1151       H  0.55405717  0.22423844  0.83072787     0.11100
H1152       H  0.52928465  0.17430800  0.84093835     0.12300
H1153       H  0.67195036  0.22231460  0.78011639     0.11300
H1154       H  0.64673885  0.17205037  0.78839873     0.10600
H1155       H  0.60395401  0.12913307  0.80673789     0.16000
H1156       H  0.52985593  0.13098651  0.84277645     0.11900
H1157       H  0.59728085  0.26746108  0.81417146     0.14700
H1158       H  0.67263063  0.26624568  0.78270794     0.14500
C1159       C  0.78473038  0.43202393  0.81587029    -0.18400
C1160       C  0.81281329  0.44574747  0.82342645    -0.20500
C1161       C  0.82714059  0.43133042  0.81980819     0.20100
C1162       C  0.81326913  0.40299491  0.80752219    -0.03400
C1163       C  0.78476832  0.38900747  0.80045896    -0.06500
C1164       C  0.77037976  0.40354495  0.80497348     0.20400
C1165       C  0.77047018  0.36029310  0.78989821     0.18600
C1166       C  0.78504684  0.34609296  0.78526908    -0.18000
C1167       C  0.81341440  0.36006599  0.79172335    -0.20200
C1168       C  0.82761977  0.38840907  0.80323514     0.20100
C1169       C  0.85566419  0.40222571  0.81140573    -0.33200
C1170       C  0.86912083  0.43004117  0.82498802     0.00700
C1171       C  0.85484660  0.44452344  0.82899721    -0.24600
C1172       C  0.74165175  0.38913267  0.79977091    -0.29100
C1173       C  0.72687093  0.36015532  0.79095725     0.06400
C1174       C  0.74165161  0.34606632  0.78526356    -0.27800
H1175       H  0.77402865  0.44352264  0.81934074     0.11100
H1176       H  0.82322169  0.46756079  0.83253901     0.12300
H1177       H  0.77439994  0.32405783  0.77708831     0.11300
H1178       H  0.82409794  0.34854834  0.78833394     0.10600
H1179       H  0.86663470  0.39098277  0.80862709     0.16000
H1180       H  0.86531847  0.46601138  0.83938127     0.11900
H1181       H  0.73056360  0.40025009  0.80418866     0.14700
H1182       H  0.73058799  0.32381520  0.77810692     0.14500
C1183       C  0.56455409  0.34312106  0.81606196    -0.18400
C1184       C  0.55023088  0.35746910  0.82120068    -0.20500
C1185       C  0.56481612  0.38661511  0.81887908     0.20100
C1186       C  0.59409856  0.40142567  0.81107881    -0.03400
C1187       C  0.60853581  0.38693397  0.80582457    -0.06500
C1188       C  0.59369629  0.35767311  0.80849038     0.20400
C1189       C  0.63783885  0.40177645  0.79825172     0.18600
C1190       C  0.65237744  0.43087936  0.79560523    -0.18000
C1191       C  0.63808657  0.44524726  0.80084707    -0.20200
C1192       C  0.60900863  0.43074682  0.80877923     0.20100
C1193       C  0.59461659  0.44507511  0.81455836    -0.33200
C1194       C  0.56546364  0.43047495  0.82235856     0.00700
C1195       C  0.55067531  0.40122573  0.82434836    -0.24600
C1196       C  0.60828944  0.34352488  0.80399211    -0.29100
C1197       C  0.63762747  0.35822789  0.79707471     0.06400
C1198       C  0.65216429  0.38735233  0.79389981    -0.27800
H1199       H  0.55284788  0.32063997  0.81819511     0.11100
H1200       H  0.52775487  0.34578122  0.82715644     0.12300
H1201       H  0.67486234  0.44257842  0.78972467     0.11300
H1202       H  0.64981517  0.46774539  0.79886868     0.10600
H1203       H  0.60612107  0.46760362  0.81280834     0.16000
H1204       H  0.52819233  0.38984585  0.83035922     0.11900
H1205       H  0.59677378  0.32108906  0.80648260     0.14700
H1206       H  0.67470890  0.39892255  0.78841520     0.14500
C1207       C  0.94735598  0.13573704  0.41718875    -0.18400
C1208       C  0.93298090  0.15003040  0.42195043    -0.20500
C1209       C  0.90410784  0.13572845  0.43122207     0.20100
C1210       C  0.88948988  0.10666290  0.43534686    -0.03400
C1211       C  0.90396690  0.09222279  0.43044823    -0.06500
C1212       C  0.93308361  0.10689346  0.42157344     0.20400
C1213       C  0.88934323  0.06316763  0.43467789     0.18600
C1214       C  0.86042228  0.04880299  0.44361734    -0.18000
C1215       C  0.84609261  0.06312683  0.44853743    -0.20200
C1216       C  0.86044379  0.09203642  0.44453090     0.20100
C1217       C  0.84624083  0.10654900  0.44959583    -0.33200
C1218       C  0.86064794  0.13557124  0.44567805     0.00700
C1219       C  0.88962539  0.14998863  0.43647087    -0.24600
C1220       C  0.94744864  0.09251886  0.41755492    -0.29100
C1221       C  0.93303799  0.06364007  0.42206076     0.06400
C1222       C  0.90394270  0.04904598  0.43023950    -0.27800
H1223       H  0.96968068  0.14727969  0.41024059     0.11100
H1224       H  0.94449053  0.17232489  0.41854602     0.12300
H1225       H  0.84890148  0.02649841  0.44696444     0.11300
H1226       H  0.82377914  0.05159536  0.45555391     0.10600
H1227       H  0.82392930  0.09517327  0.45668388     0.16000
H1228       H  0.90094167  0.17229864  0.43316436     0.11900
H1229       H  0.96985664  0.10382930  0.41102446     0.14700
H1230       H  0.89271926  0.02677014  0.43375029     0.14500
C1231       C  0.86492416  0.31263203  0.46358440    -0.18400
C1232       C  0.85038483  0.28388209  0.46819601    -0.20500
C1233       C  0.86288040  0.26810100  0.45759081     0.20100
C1234       C  0.89040226  0.28149013  0.44239110    -0.03400
C1235       C  0.90491715  0.31039635  0.43730390    -0.06500
C1236       C  0.89211345  0.32604872  0.44799488     0.20400
C1237       C  0.93198688  0.32347999  0.42087571     0.18600
C1238       C  0.94463556  0.30781715  0.41059306    -0.18000
C1239       C  0.93044951  0.27930051  0.41615374    -0.20200
C1240       C  0.90326791  0.26592141  0.43175285     0.20100
C1241       C  0.88859010  0.23715331  0.43638574    -0.33200
C1242       C  0.86092814  0.22346161  0.45090968     0.00700
C1243       C  0.84824431  0.23913855  0.46153903    -0.24600
C1244       C  0.90640407  0.35462170  0.44201676    -0.29100
C1245       C  0.93283638  0.36737398  0.42446967     0.06400
C1246       C  0.94561538  0.35180339  0.41424818    -0.27800
H1247       H  0.85474401  0.32430230  0.47180890     0.11100
H1248       H  0.82928822  0.27395375  0.47993518     0.12300
H1249       H  0.96542796  0.31758013  0.39802643     0.11300
H1250       H  0.94059849  0.26760962  0.40783544     0.10600
H1251       H  0.89853318  0.22529330  0.42783486     0.16000
H1252       H  0.82698924  0.22881754  0.47285621     0.11900
H1253       H  0.89636978  0.36655188  0.44945776     0.14700
H1254       H  0.96600356  0.36167977  0.40064564     0.14500
C1255       C  0.68898844  0.05157791  0.41062979    -0.18400
C1256       C  0.71737304  0.06556805  0.41666595    -0.20500
C1257       C  0.72975063  0.09103568  0.43592423     0.20100
C1258       C  0.71323456  0.10208288  0.45025397    -0.03400
C1259       C  0.68442767  0.08766213  0.44468140    -0.06500
C1260       C  0.67248228  0.06266569  0.42409820     0.20400
C1261       C  0.66786670  0.09880230  0.45859844     0.18600
C1262       C  0.68017106  0.12394809  0.47854212    -0.18000
C1263       C  0.70887988  0.13851232  0.48358658    -0.20200
C1264       C  0.72569868  0.12800589  0.46910036     0.20100
C1265       C  0.75485289  0.14328936  0.47220884    -0.33200
C1266       C  0.77144514  0.13257673  0.45732008     0.00700
C1267       C  0.75857276  0.10609719  0.44004619    -0.24600
C1268       C  0.64456391  0.04980033  0.41622500    -0.29100
C1269       C  0.62827556  0.06132956  0.42896558     0.06400
C1270       C  0.63966630  0.08524626  0.45109325    -0.27800
H1271       H  0.68006192  0.03233348  0.39492479     0.11100
H1272       H  0.72981938  0.05683556  0.40555458     0.12300
H1273       H  0.66775338  0.13275348  0.48949980     0.11300
H1274       H  0.71802345  0.15824389  0.49835566     0.10600
H1275       H  0.76467070  0.16359762  0.48578296     0.16000
H1276       H  0.77123134  0.09776564  0.42832255     0.11900
H1277       H  0.63570791  0.03122119  0.39936516     0.14700
H1278       H  0.62713874  0.09424089  0.46083406     0.14500
C1279       C  0.93468160  0.15166141  0.92863506    -0.18400
C1280       C  0.94915035  0.13745398  0.92458419    -0.20500
C1281       C  0.93490765  0.10867395  0.92937989     0.20100
C1282       C  0.90583506  0.09410002  0.93853466    -0.03400
C1283       C  0.89127192  0.10843951  0.94270394    -0.06500
C1284       C  0.90574895  0.13733435  0.93763608     0.20400
C1285       C  0.86218754  0.09378822  0.95169822     0.18600
C1286       C  0.84797736  0.06507231  0.95673772    -0.18000
C1287       C  0.86238562  0.05085294  0.95255253    -0.20200
C1288       C  0.89123342  0.06513043  0.94326783     0.20100
C1289       C  0.90565125  0.05086060  0.93835784    -0.33200
C1290       C  0.93452252  0.06516281  0.92899905     0.00700
C1291       C  0.94911672  0.09412836  0.92488322    -0.24600
C1292       C  0.89100593  0.15133293  0.94146125    -0.29100
C1293       C  0.86191871  0.13679210  0.95016315     0.06400
C1294       C  0.84774005  0.10802144  0.95532185    -0.27800
H1295       H  0.94611032  0.17384862  0.92463256     0.11100
H1296       H  0.97145894  0.14894855  0.91752017     0.12300
H1297       H  0.82566024  0.05355954  0.96373976     0.11300
H1298       H  0.85092265  0.02863486  0.95638797     0.10600
H1299       H  0.89436209  0.02857747  0.94183694     0.16000
H1300       H  0.97141649  0.10525310  0.91768160     0.11900
H1301       H  0.90217570  0.17348830  0.93730873     0.14700
H1302       H  0.82538354  0.09659982  0.96214754     0.14500
C1303       C  0.85221662  0.28469434  0.97190839    -0.18400
C1304       C  0.86661385  0.31336534  0.96696025    -0.20500
C1305       C  0.89264543  0.32621518  0.94861657     0.20100
C1306       C  0.90433269  0.31002746  0.93519473    -0.03400
C1307       C  0.89000034  0.28122656  0.94055338    -0.06500
C1308       C  0.86372744  0.26846093  0.95883233     0.20400
C1309       C  0.90185284  0.26517225  0.92733985     0.18600
C1310       C  0.92767366  0.27788537  0.90858161    -0.18000
C1311       C  0.94166110  0.30632272  0.90281671    -0.20200
C1312       C  0.93016640  0.32252000  0.91601860     0.20100
C1313       C  0.94379237  0.35086873  0.90981852    -0.33200
C1314       C  0.93219564  0.36701601  0.92290905     0.02500
C1315       C  0.90690617  0.35479195  0.94278069    -0.24600
C1316       C  0.84937583  0.23967044  0.96349967    -0.29100
C1317       C  0.86122400  0.22365023  0.95063018     0.06400
C1318       C  0.88755376  0.23661051  0.93280024    -0.27800
H1319       H  0.83205898  0.27520760  0.98596660     0.11100
H1320       H  0.85727386  0.32544454  0.97724946     0.12300
H1321       H  0.93695399  0.26577683  0.89815730     0.11300
H1322       H  0.96145151  0.31564324  0.88798928     0.10600
H1323       H  0.96327552  0.36033392  0.89436288     0.16000
H1324       H  0.89772993  0.36717539  0.95239218     0.11900
H1325       H  0.82908308  0.22976188  0.97728635     0.14700
H1326       H  0.89664337  0.22430510  0.92241342     0.14500
C1327       C  0.71000369  0.14005835  0.98129689    -0.18400
C1328       C  0.68150074  0.12588893  0.97529300    -0.20500
C1329       C  0.66936172  0.10090505  0.95503155     0.20100
C1330       C  0.68592840  0.08966131  0.94153804    -0.03400
C1331       C  0.71450903  0.10365727  0.94812263    -0.06500
C1332       C  0.72677585  0.12931181  0.96748714     0.20400
C1333       C  0.73099779  0.09239513  0.93443271     0.18600
C1334       C  0.71882671  0.06722667  0.91461456    -0.18000
C1335       C  0.69068866  0.05366470  0.90757938    -0.20200
C1336       C  0.67418252  0.06486587  0.92060458     0.20100
C1337       C  0.64637901  0.05211877  0.91226598    -0.33200
C1338       C  0.62991986  0.06345277  0.92503896     0.00700
C1339       C  0.64125187  0.08743202  0.94711364    -0.24600
C1340       C  0.75572096  0.14409781  0.97179666    -0.29100
C1341       C  0.77230088  0.13316833  0.95759942     0.06400
C1342       C  0.75960774  0.10695532  0.93977825    -0.27800
H1343       H  0.71901815  0.15962846  0.99639243     0.11100
H1344       H  0.66909875  0.13480381  0.98589720     0.12300
H1345       H  0.73124837  0.05834951  0.90392887     0.11300
H1346       H  0.68192276  0.03458233  0.89159551     0.10600
H1347       H  0.63761841  0.03354532  0.89539981     0.16000
H1348       H  0.62863770  0.09633640  0.95682902     0.11900
H1349       H  0.76543227  0.16425744  0.98571585     0.14700
H1350       H  0.77231268  0.09853411  0.92851879     0.14500
C1351       C  0.84623322  0.65143499  0.95341806     0.79700
N1352       N  0.81773217  0.63661806  0.95629038    -0.78600
C1353       C  0.80315175  0.64980656  0.95865166     0.82100
N1354       N  0.81732824  0.67816162  0.95789335    -0.78600
C1355       C  0.84584986  0.69319690  0.95454348     0.82200
N1356       N  0.86011516  0.67969175  0.95218284    -0.80300
C1357       C  0.84528227  0.65058604  0.45059843     0.79700
N1358       N  0.81684261  0.63597590  0.45406917    -0.78600
C1359       C  0.80237584  0.64930398  0.45759240     0.82100
N1360       N  0.81666444  0.67774800  0.45748673    -0.78600
C1361       C  0.84523007  0.69270230  0.45372892     0.82200
N1362       N  0.85930719  0.67892662  0.45017325    -0.80300
C1363       C  0.65306448  0.84329149  0.79426641     0.79700
N1364       N  0.63873361  0.81499721  0.79580865    -0.78600
C1365       C  0.65254565  0.80112303  0.79450040     0.82100
N1366       N  0.68105734  0.81588212  0.79185526    -0.78600
C1367       C  0.69579898  0.84420575  0.79053484     0.82200
N1368       N  0.68163308  0.85779025  0.79185963    -0.80300
C1369       C  0.65336924  0.84311986  0.30205405     0.79700
N1370       N  0.68165145  0.85771188  0.30359702    -0.78600
C1371       C  0.69600366  0.84432724  0.30063933     0.82100
N1372       N  0.68182032  0.81592212  0.29635405    -0.78600
C1373       C  0.65340663  0.80087724  0.29516129     0.82200
N1374       N  0.63932836  0.81466089  0.29810656    -0.80300
N1375       N  0.98097619  0.99184748  0.95639295    -0.06600
N1376       N  0.97469490  0.98109017  0.98555313    -0.58800
N1377       N  0.98131948  0.54063662  0.91694694    -0.06300
N1378       N  0.97751591  0.56201405  0.92079606    -0.60900
N1379       N  0.95705141  0.51676788  0.91710062    -0.05900
N1380       N  0.93619763  0.52139919  0.92128871    -0.58700
N1381       N  0.50540751  0.51561753  0.95622176    -0.05600
N1382       N  0.51629705  0.52136991  0.98518975    -0.61200
C1383       C  0.99696721  0.99960149  0.00323161     0.95500
C1384       C  0.94927524  0.54970296  0.92345131     0.95300
N1385       N  0.54489253  0.55836169  0.84153083    -0.06800
N1386       N  0.55592867  0.57812762  0.82022476    -0.59300
N1387       N  0.56102174  0.54275541  0.90853698    -0.04900
N1388       N  0.58098601  0.55430322  0.92957887    -0.60600
N1389       N  0.56919433  0.53382485  0.88075227    -0.06900
N1390       N  0.59470960  0.53877070  0.88249477    -0.59600
N1391       N  0.53587536  0.56645422  0.86931959    -0.04600
N1392       N  0.54011369  0.59162197  0.86730462    -0.60700
Mn1393     Mn  0.52120530  0.54194830  0.91336247     1.18400
C1394       C  0.55239205  0.59852617  0.83650757     0.97600
C1395       C  0.60174887  0.55138451  0.91311950     0.98300
N1396       N  0.92997778  0.96148401  0.86937720    -0.06900
N1397       N  0.90433174  0.95621660  0.86741065    -0.63200
N1398       N  0.96307445  0.92865382  0.88092684    -0.05700
N1399       N  0.95813260  0.90318172  0.88219787    -0.63900
N1400       N  0.95371369  0.93642064  0.90866746    -0.06400
N1401       N  0.94177505  0.91606097  0.92929257    -0.63500
N1402       N  0.93828672  0.95239298  0.84180567    -0.05300
N1403       N  0.91830637  0.94037758  0.82078776    -0.64100
Mn1404     Mn  0.95476209  0.97637283  0.91350609     1.10700
C1405       C  0.89743375  0.94326771  0.83688521     0.98800
C1406       C  0.94504751  0.89563797  0.91249095     0.98900
N1407       N  0.54236532  0.97849398  0.83375484    -0.06400
N1408       N  0.56336208  0.97406492  0.82989998    -0.61800
N1409       N  0.99385457  0.97896496  0.79432268    -0.05700
N1410       N  0.98324785  0.97242450  0.76511163    -0.58500
N1411       N  0.51813198  0.50285401  0.79399480    -0.07000
N1412       N  0.52456797  0.51299203  0.76444879    -0.61300
N1413       N  0.51817289  0.95454237  0.83401874    -0.06000
N1414       N  0.52220122  0.93330088  0.83048676    -0.58500
Mn1415     Mn  0.54429271  0.51869072  0.83691027     1.20200
Mn1416     Mn  0.97811391  0.95313859  0.83726048     1.10100
Cl1417     Cl  0.99958782  0.99754084  0.87526591    -0.86500
C1418       C  0.55048844  0.94578144  0.82799393     0.95800
C1419       C  0.00254635  0.99389331  0.74672907     0.95600
N1420       N  0.98086746  0.99209827  0.45647360    -0.06600
N1421       N  0.97430596  0.98122756  0.48557143    -0.58800
N1422       N  0.98104299  0.54066370  0.41577647    -0.06300
N1423       N  0.97670079  0.56163588  0.41747309    -0.60900
N1424       N  0.95703798  0.51655757  0.41613121    -0.05900
N1425       N  0.93583140  0.52057562  0.41817489    -0.58700
N1426       N  0.50491717  0.51622536  0.45671855    -0.05600
N1427       N  0.51529014  0.52215622  0.48602755    -0.61200
C1428       C  0.99602531  0.00009461  0.50374902     0.95500
C1429       C  0.94838893  0.54877776  0.41892448     0.95300
N1430       N  0.54579076  0.55847640  0.34169178    -0.06800
N1431       N  0.55713488  0.57800579  0.32006854    -0.59300
N1432       N  0.56077542  0.54304989  0.40992093    -0.04900
N1433       N  0.58000065  0.55367292  0.43182917    -0.60600
N1434       N  0.56922697  0.53398321  0.38249224    -0.06900
N1435       N  0.59418142  0.53791606  0.38530581    -0.59600
N1436       N  0.53650517  0.56683208  0.36905687    -0.04600
N1437       N  0.54093551  0.59202474  0.36636145    -0.60700
Mn1438     Mn  0.52114090  0.54242112  0.41351909     1.18400
C1439       C  0.55353816  0.59857128  0.33558415     0.97600
C1440       C  0.60058504  0.55004391  0.41621655     0.98300
N1441       N  0.93155154  0.96224557  0.36938414    -0.06900
N1442       N  0.90668129  0.95869476  0.36757867    -0.63200
N1443       N  0.96359489  0.92862719  0.38135334    -0.05700
N1444       N  0.95872714  0.90318645  0.38303925    -0.63900
N1445       N  0.95435357  0.93661521  0.40901709    -0.06400
N1446       N  0.94248854  0.91644799  0.42991195    -0.63500
N1447       N  0.93950466  0.95321650  0.34151549    -0.05300
N1448       N  0.91977038  0.94286884  0.32024315    -0.64100
Mn1449     Mn  0.95539106  0.97655548  0.41339102     1.10700
C1450       C  0.89957828  0.94678331  0.33682991     0.98800
C1451       C  0.94574245  0.89590043  0.41346974     0.98900
N1452       N  0.54341181  0.97883001  0.33593813    -0.06400
N1453       N  0.56444268  0.97460440  0.33469324    -0.61800
N1454       N  0.99570705  0.97908946  0.29419068    -0.05700
N1455       N  0.98575698  0.97232196  0.26455628    -0.58500
N1456       N  0.52010982  0.50286618  0.29404237    -0.07000
N1457       N  0.52732027  0.51261917  0.26417668    -0.61300
N1458       N  0.51927937  0.95481502  0.33569019    -0.06000
N1459       N  0.52339773  0.93371917  0.33438504    -0.58500
Mn1460     Mn  0.54529638  0.51889186  0.33793524     1.20200
Mn1461     Mn  0.97917129  0.95330729  0.33749199     1.10100
Cl1462     Cl  0.00026117  0.99780706  0.37555153    -0.86500
C1463       C  0.55166465  0.94636855  0.33380157     0.95800
C1464       C  0.00559908  0.99345315  0.24607014     0.95600
C1465       C  0.95139429  0.95625358  0.64434440    -0.18400
C1466       C  0.95068706  0.95679497  0.61020970    -0.20500
C1467       C  0.97430703  0.97672620  0.59172458     0.20100
C1468       C  0.99889487  0.99627718  0.60779904    -0.03400
C1469       C  0.99959679  0.99575693  0.64223042    -0.06500
C1470       C  0.97573293  0.97565143  0.66059405     0.20400
C1471       C  0.52417745  0.51541367  0.65825845     0.18600
C1472       C  0.54784078  0.53521682  0.63977793    -0.18000
C1473       C  0.54713713  0.53575580  0.60570437    -0.20200
C1474       C  0.52275617  0.51648409  0.58952691     0.20100
C1475       C  0.52177046  0.51728330  0.55546923    -0.33200
C1476       C  0.99728821  0.99809125  0.53932131     0.00700
C1477       C  0.97371480  0.97766773  0.55754920    -0.24600
C1478       C  0.97669056  0.97528975  0.69482439    -0.29100
C1479       C  0.00115197  0.99488226  0.71092296     0.06400
C1480       C  0.52473744  0.51491526  0.69246089    -0.27800
H1481       H  0.93288215  0.94067956  0.65804858     0.11100
H1482       H  0.93162034  0.94165426  0.59827276     0.12300
H1483       H  0.56690191  0.55037462  0.65171089     0.11300
H1484       H  0.56564515  0.55134516  0.59201701     0.10600
H1485       H  0.54002934  0.53300493  0.54156964     0.16000
H1486       H  0.95472064  0.96283079  0.54528184     0.11900
H1487       H  0.95842679  0.95974879  0.70890412     0.14700
H1488       H  0.54371584  0.52995623  0.70463818     0.14500
C1489       C  0.95200000  0.96184332  0.14601319    -0.18400
C1490       C  0.95085090  0.96248600  0.11202891    -0.20500
C1491       C  0.97533571  0.97924238  0.09230339     0.20100
C1492       C  0.00127208  0.99551185  0.10696585    -0.03400
C1493       C  0.00243022  0.99488817  0.14131388    -0.06500
C1494       C  0.97765466  0.97797825  0.16090128     0.20400
C1495       C  0.52832034  0.01131146  0.15606405     0.18600
C1496       C  0.55285056  0.02783503  0.13624383    -0.18000
C1497       C  0.55169876  0.02848570  0.10223014    -0.20200
C1498       C  0.52599769  0.01258791  0.08738906     0.20100
C1499       C  0.52452725  0.01366216  0.05343049    -0.33200
C1500       C  0.99870976  0.99759883  0.03870807     0.00700
C1501       C  0.97427434  0.98022261  0.05826616    -0.24600
C1502       C  0.97892721  0.97758784  0.19503699    -0.29100
C1503       C  0.00456393  0.99420058  0.21003016     0.06400
C1504       C  0.52918821  0.01100021  0.19035414    -0.27800
H1505       H  0.93277898  0.94878355  0.16069069     0.11100
H1506       H  0.93075849  0.94992474  0.10118064     0.12300
H1507       H  0.57293461  0.04043130  0.14710191     0.11300
H1508       H  0.57090948  0.04158596  0.08755903     0.10600
H1509       H  0.54345663  0.02701412  0.03846392     0.16000
H1510       H  0.95427786  0.96790608  0.04714007     0.11900
H1511       H  0.95987731  0.96456751  0.21002829     0.14700
H1512       H  0.54907416  0.02362277  0.20167252     0.14500
C1513       C  0.65295437  0.71279492  0.29288218    -0.18400
C1514       C  0.63881108  0.68428908  0.29850903    -0.20500
C1515       C  0.60969450  0.66924252  0.30608724     0.20100
C1516       C  0.59452755  0.68283862  0.30718590    -0.03400
C1517       C  0.60876696  0.71152294  0.30101757    -0.06500
C1518       C  0.63818188  0.72666298  0.29447410     0.20400
C1519       C  0.59371247  0.72525202  0.30256384     0.18600
C1520       C  0.56447736  0.71000828  0.30938568    -0.18000
C1521       C  0.55041397  0.68168330  0.31604707    -0.20200
C1522       C  0.56530864  0.66803890  0.31558182     0.20100
C1523       C  0.55172950  0.64014690  0.32428319    -0.33200
C1524       C  0.56688505  0.62674316  0.32352273     0.00700
C1525       C  0.59563126  0.64109593  0.31364103    -0.24600
C1526       C  0.65245698  0.75560331  0.29091290    -0.29100
C1527       C  0.63778936  0.76976130  0.29396663     0.06400
C1528       C  0.60827198  0.75419385  0.29865982    -0.27800
H1529       H  0.67554053  0.72411478  0.28782427     0.11100
H1530       H  0.65074020  0.67415108  0.29763315     0.12300
H1531       H  0.55257609  0.72019608  0.31047341     0.11300
H1532       H  0.52795469  0.67057448  0.32211011     0.10600
H1533       H  0.52950930  0.62893126  0.33193019     0.16000
H1534       H  0.60729882  0.63073258  0.31347430     0.11900
H1535       H  0.67514406  0.76723241  0.28692027     0.14700
H1536       H  0.59665742  0.76475538  0.30084532     0.14500
C1537       C  0.81923080  0.87395341  0.27515284    -0.18400
C1538       C  0.79030897  0.85861935  0.27149655    -0.20500
C1539       C  0.77289061  0.86717756  0.28935145     0.20100
C1540       C  0.78478718  0.89170600  0.31072138    -0.03400
C1541       C  0.81389439  0.90697219  0.31471886    -0.06500
C1542       C  0.83118173  0.89795067  0.29697166     0.20400
C1543       C  0.82555647  0.93081394  0.33711998     0.18600
C1544       C  0.80825441  0.93969066  0.35457330    -0.18000
C1545       C  0.77948279  0.92481737  0.35020761    -0.20200
C1546       C  0.76754181  0.90071118  0.32854999     0.20100
C1547       C  0.73862349  0.88528620  0.32466473    -0.33200
C1548       C  0.72658024  0.86059109  0.30384608     0.00700
C1549       C  0.74378419  0.85156119  0.28639221    -0.24600
C1550       C  0.85987551  0.91240715  0.30236758    -0.29100
C1551       C  0.87120830  0.93521083  0.32596248     0.06400
C1552       C  0.85411402  0.94474024  0.34259021    -0.27800
H1553       H  0.83218365  0.86673899  0.26136140     0.11100
H1554       H  0.78152725  0.83993075  0.25485752     0.12300
H1555       H  0.81692889  0.95796804  0.37185876     0.11300
H1556       H  0.76650225  0.93196696  0.36409604     0.10600
H1557       H  0.72536019  0.89216949  0.33842144     0.16000
H1558       H  0.73454430  0.83259988  0.27019013     0.11900
H1559       H  0.87296661  0.90490264  0.28969604     0.14700
H1560       H  0.86285008  0.96243479  0.36072301     0.14500
C1561       C  0.55077322  0.85780109  0.32623300    -0.18400
C1562       C  0.56491935  0.84328683  0.32093203    -0.20500
C1563       C  0.59429095  0.85789788  0.31595390     0.20100
C1564       C  0.60958741  0.88745887  0.31650023    -0.03400
C1565       C  0.59532383  0.90211078  0.32184865    -0.06500
C1566       C  0.56576479  0.88717400  0.32658390     0.20400
C1567       C  0.61062333  0.93166607  0.32224630     0.18600
C1568       C  0.64001055  0.94630063  0.31749365    -0.18000
C1569       C  0.65414314  0.93177900  0.31221380    -0.20200
C1570       C  0.63911950  0.90239013  0.31165435     0.20100
C1571       C  0.65314472  0.88771081  0.30651624    -0.33200
C1572       C  0.63810361  0.85822532  0.30615796     0.00700
C1573       C  0.60862145  0.84347727  0.31065496    -0.24600
C1574       C  0.55168583  0.90182985  0.33115015    -0.29100
C1575       C  0.56675402  0.93122521  0.33095710     0.06400
C1576       C  0.59624362  0.94602784  0.32694584    -0.27800
H1577       H  0.52807835  0.84603476  0.32989735     0.11100
H1578       H  0.55286424  0.82060088  0.32068664     0.12300
H1579       H  0.65206581  0.96898667  0.31772753     0.11300
H1580       H  0.67684150  0.94354304  0.30855427     0.10600
H1581       H  0.67585490  0.89935494  0.30293275     0.16000
H1582       H  0.59679752  0.82078927  0.31051901     0.11900
H1583       H  0.52896101  0.89030398  0.33442462     0.14700
H1584       H  0.60800594  0.96870719  0.32687404     0.14500
C1585       C  0.56517061  0.71318417  0.82547565    -0.18400
C1586       C  0.55101941  0.68468296  0.83125730    -0.20500
C1587       C  0.56487712  0.66981936  0.82487760     0.20100
C1588       C  0.59316931  0.68370697  0.81213358    -0.03400
C1589       C  0.60758045  0.71256027  0.80690300    -0.06500
C1590       C  0.59350383  0.72735560  0.81358928     0.20400
C1591       C  0.63618089  0.72666475  0.79547855     0.18600
C1592       C  0.64998239  0.71176139  0.78885415    -0.18000
C1593       C  0.63559595  0.68308017  0.79354678    -0.20200
C1594       C  0.60725911  0.66891107  0.80528536     0.20100
C1595       C  0.59301296  0.64040780  0.81124579    -0.33200
C1596       C  0.56530244  0.62687502  0.82523108     0.00700
C1597       C  0.55123934  0.64153315  0.83182065    -0.24600
C1598       C  0.60811511  0.75613020  0.80873919    -0.29100
C1599       C  0.63678052  0.77044820  0.79784210     0.06400
C1600       C  0.65059196  0.75547977  0.79119340    -0.27800
H1601       H  0.55405712  0.72423839  0.83072840     0.11100
H1602       H  0.52928473  0.67430800  0.84093877     0.12300
H1603       H  0.67195026  0.72231447  0.78011602     0.11300
H1604       H  0.64673870  0.67205017  0.78839837     0.10600
H1605       H  0.60395382  0.62913295  0.80673779     0.16000
H1606       H  0.52985587  0.63098649  0.84277679     0.11900
H1607       H  0.59728079  0.76746116  0.81417194     0.14700
H1608       H  0.67263043  0.76624559  0.78270789     0.14500
C1609       C  0.78473036  0.93202366  0.81587012    -0.18400
C1610       C  0.81281300  0.94574682  0.82342616    -0.20500
C1611       C  0.82714052  0.93133027  0.81980824     0.20100
C1612       C  0.81326898  0.90299482  0.80752232    -0.03400
C1613       C  0.78476826  0.88900743  0.80045905    -0.06500
C1614       C  0.77037964  0.90354482  0.80497342     0.20400
C1615       C  0.77047013  0.86029314  0.78989840     0.18600
C1616       C  0.78504670  0.84609290  0.78526938    -0.18000
C1617       C  0.81341395  0.86006628  0.79172380    -0.20200
C1618       C  0.82761958  0.88840908  0.80323541     0.20100
C1619       C  0.85566367  0.90222598  0.81140610    -0.33200
C1620       C  0.86912073  0.93004121  0.82498822     0.00700
C1621       C  0.85484655  0.94452353  0.82899737    -0.24600
C1622       C  0.74165156  0.88913285  0.79977099    -0.29100
C1623       C  0.72687089  0.86015539  0.79095738     0.06400
C1624       C  0.74165201  0.84606715  0.78526397    -0.27800
H1625       H  0.77402870  0.94352242  0.81934056     0.11100
H1626       H  0.82322153  0.96756047  0.83253881     0.12300
H1627       H  0.77439985  0.82405774  0.77708869     0.11300
H1628       H  0.82409782  0.84854830  0.78833444     0.10600
H1629       H  0.86663443  0.89098270  0.80862745     0.16000
H1630       H  0.86531837  0.96601141  0.83938138     0.11900
H1631       H  0.73056361  0.90025020  0.80418866     0.14700
H1632       H  0.73058805  0.82381533  0.77810717     0.14500
C1633       C  0.56455366  0.84312020  0.81606180    -0.18400
C1634       C  0.55023154  0.85746935  0.82120020    -0.20500
C1635       C  0.56481621  0.88661505  0.81887889     0.20100
C1636       C  0.59409859  0.90142552  0.81107877    -0.03400
C1637       C  0.60853580  0.88693375  0.80582459    -0.06500
C1638       C  0.59369618  0.85767281  0.80849031     0.20400
C1639       C  0.63783892  0.90177635  0.79825185     0.18600
C1640       C  0.65237796  0.93087949  0.79560536    -0.18000
C1641       C  0.63808623  0.94524646  0.80084739    -0.20200
C1642       C  0.60900859  0.93074660  0.80877935     0.20100
C1643       C  0.59461651  0.94507484  0.81455849    -0.33200
C1644       C  0.56546364  0.93047491  0.82235851     0.00700
C1645       C  0.55067550  0.90122577  0.82434813    -0.24600
C1646       C  0.60828907  0.84352413  0.80399218    -0.29100
C1647       C  0.63762740  0.85822774  0.79707487     0.06400
C1648       C  0.65216447  0.88735231  0.79390000    -0.27800
H1649       H  0.55284765  0.82063985  0.81819483     0.11100
H1650       H  0.52775483  0.84578130  0.82715606     0.12300
H1651       H  0.67486232  0.94257846  0.78972507     0.11300
H1652       H  0.64981509  0.96774531  0.79886908     0.10600
H1653       H  0.60612113  0.96760360  0.81280859     0.16000
H1654       H  0.52819229  0.88984580  0.83035890     0.11900
H1655       H  0.59677366  0.82108887  0.80648257     0.14700
H1656       H  0.67470888  0.89892246  0.78841557     0.14500
C1657       C  0.94735663  0.63573743  0.41718838    -0.18400
C1658       C  0.93298099  0.65003050  0.42195033    -0.20500
C1659       C  0.90410791  0.63572849  0.43122213     0.20100
C1660       C  0.88948985  0.60666289  0.43534703    -0.03400
C1661       C  0.90396702  0.59222290  0.43044827    -0.06500
C1662       C  0.93308374  0.60689357  0.42157332     0.20400
C1663       C  0.88934329  0.56316772  0.43467805     0.18600
C1664       C  0.86042249  0.54880332  0.44361761    -0.18000
C1665       C  0.84609211  0.56312652  0.44853796    -0.20200
C1666       C  0.86044372  0.59203636  0.44453121     0.20100
C1667       C  0.84624070  0.60654894  0.44959620    -0.33200
C1668       C  0.86064795  0.63557122  0.44567831     0.00700
C1669       C  0.88962547  0.64998877  0.43647098    -0.24600
C1670       C  0.94744895  0.59251903  0.41755468    -0.29100
C1671       C  0.93303808  0.56364015  0.42206066     0.06400
C1672       C  0.90394292  0.54904631  0.43023953    -0.27800
H1673       H  0.96968082  0.64727981  0.41024027     0.11100
H1674       H  0.94449048  0.67232494  0.41854590     0.12300
H1675       H  0.84890165  0.52649839  0.44696480     0.11300
H1676       H  0.82377908  0.55159519  0.45555442     0.10600
H1677       H  0.82392929  0.59517333  0.45668428     0.16000
H1678       H  0.90094168  0.67229861  0.43316446     0.11900
H1679       H  0.96985667  0.60382927  0.41102415     0.14700
H1680       H  0.89271937  0.52677023  0.43375042     0.14500
C1681       C  0.86492432  0.81263205  0.46358490    -0.18400
C1682       C  0.85038450  0.78388191  0.46819675    -0.20500
C1683       C  0.86288046  0.76810100  0.45759108     0.20100
C1684       C  0.89040226  0.78149005  0.44239113    -0.03400
C1685       C  0.90491728  0.81039636  0.43730386    -0.06500
C1686       C  0.89211356  0.82604869  0.44799514     0.20400
C1687       C  0.93198699  0.82347997  0.42087540     0.18600
C1688       C  0.94463572  0.80781711  0.41059245    -0.18000
C1689       C  0.93044935  0.77930037  0.41615336    -0.20200
C1690       C  0.90326789  0.76592128  0.43175263     0.20100
C1691       C  0.88859027  0.73715290  0.43638541    -0.33200
C1692       C  0.86092821  0.72346151  0.45090971     0.00700
C1693       C  0.84824447  0.73913853  0.46153923    -0.24600
C1694       C  0.90640430  0.85462175  0.44201695    -0.29100
C1695       C  0.93283656  0.86737398  0.42446960     0.06400
C1696       C  0.94561619  0.85180374  0.41424738    -0.27800
H1697       H  0.85474423  0.82430243  0.47180963     0.11100
H1698       H  0.82928831  0.77395379  0.47993591     0.12300
H1699       H  0.96542776  0.81757983  0.39802582     0.11300
H1700       H  0.94059822  0.76760939  0.40783494     0.10600
H1701       H  0.89853315  0.72529310  0.42783453     0.16000
H1702       H  0.82698944  0.72881750  0.47285657     0.11900
H1703       H  0.89637011  0.86655195  0.44945814     0.14700
H1704       H  0.96600364  0.86167979  0.40064509     0.14500
C1705       C  0.68898852  0.55157782  0.41062982    -0.18400
C1706       C  0.71737328  0.56556784  0.41666585    -0.20500
C1707       C  0.72975063  0.59103558  0.43592435     0.20100
C1708       C  0.71323453  0.60208273  0.45025408    -0.03400
C1709       C  0.68442767  0.58766198  0.44468151    -0.06500
C1710       C  0.67248233  0.56266560  0.42409826     0.20400
C1711       C  0.66786667  0.59880211  0.45859859     0.18600
C1712       C  0.68017110  0.62394780  0.47854225    -0.18000
C1713       C  0.70887974  0.63851190  0.48358663    -0.20200
C1714       C  0.72569865  0.62800572  0.46910052     0.20100
C1715       C  0.75485280  0.64328922  0.47220905    -0.33200
C1716       C  0.77144509  0.63257670  0.45732035     0.00700
C1717       C  0.75857257  0.60609727  0.44004653    -0.24600
C1718       C  0.64456396  0.54980029  0.41622512    -0.29100
C1719       C  0.62827557  0.56132947  0.42896575     0.06400
C1720       C  0.63966629  0.58524610  0.45109346    -0.27800
H1721       H  0.68006195  0.53233337  0.39492481     0.11100
H1722       H  0.72981952  0.55683549  0.40555466     0.12300
H1723       H  0.66775341  0.63275328  0.48950006     0.11300
H1724       H  0.71802338  0.65824363  0.49835586     0.10600
H1725       H  0.76467059  0.66359754  0.48578332     0.16000
H1726       H  0.77123133  0.59776568  0.42832278     0.11900
H1727       H  0.63570801  0.53122122  0.39936521     0.14700
H1728       H  0.62713867  0.59424071  0.46083437     0.14500
C1729       C  0.93468117  0.65166076  0.92863548    -0.18400
C1730       C  0.94914942  0.63745337  0.92458471    -0.20500
C1731       C  0.93490735  0.60867368  0.92938003     0.20100
C1732       C  0.90583477  0.59409979  0.93853458    -0.03400
C1733       C  0.89127168  0.60843926  0.94270391    -0.06500
C1734       C  0.90574877  0.63733415  0.93763626     0.20400
C1735       C  0.86218732  0.59378802  0.95169802     0.18600
C1736       C  0.84797644  0.56507173  0.95673751    -0.18000
C1737       C  0.86238537  0.55085279  0.95255203    -0.20200
C1738       C  0.89123319  0.56513026  0.94326755     0.20100
C1739       C  0.90565114  0.55086062  0.93835752    -0.33200
C1740       C  0.93452241  0.56516273  0.92899897     0.00700
C1741       C  0.94911623  0.59412809  0.92488342    -0.24600
C1742       C  0.89100589  0.65133273  0.94146146    -0.29100
C1743       C  0.86191876  0.63679210  0.95016314     0.06400
C1744       C  0.84774019  0.60802145  0.95532160    -0.27800
H1745       H  0.94611020  0.67384833  0.92463301     0.11100
H1746       H  0.97145866  0.64894836  0.91752060     0.12300
H1747       H  0.82565991  0.55355928  0.96373919     0.11300
H1748       H  0.85092244  0.52863455  0.95638729     0.10600
H1749       H  0.89436195  0.52857740  0.94183644     0.16000
H1750       H  0.97141648  0.60525310  0.91768184     0.11900
H1751       H  0.90217588  0.67348838  0.93730904     0.14700
H1752       H  0.82538361  0.59659982  0.96214717     0.14500
C1753       C  0.85221581  0.78469386  0.97190856    -0.18400
C1754       C  0.86661427  0.81336461  0.96695943    -0.20500
C1755       C  0.89264549  0.82621495  0.94861629     0.20100
C1756       C  0.90433274  0.81002733  0.93519459    -0.03400
C1757       C  0.89000024  0.78122653  0.94055339    -0.06500
C1758       C  0.86372734  0.76846078  0.95883218     0.20400
C1759       C  0.90185282  0.76517228  0.92733995     0.18600
C1760       C  0.92767334  0.77788583  0.90858215    -0.18000
C1761       C  0.94166098  0.80632274  0.90281698    -0.20200
C1762       C  0.93016644  0.82252007  0.91601865     0.20100
C1763       C  0.94379258  0.85086877  0.90981839    -0.33200
C1764       C  0.93219581  0.86701599  0.92290894     0.02500
C1765       C  0.90690655  0.85479135  0.94278013    -0.24600
C1766       C  0.84937582  0.73967039  0.96349947    -0.29100
C1767       C  0.86122410  0.72365023  0.95063008     0.06400
C1768       C  0.88755387  0.73661060  0.93280028    -0.27800
H1769       H  0.83205885  0.77520763  0.98596624     0.11100
H1770       H  0.85727397  0.82544454  0.97724894     0.12300
H1771       H  0.93695400  0.76577706  0.89815764     0.11300
H1772       H  0.96145149  0.81564322  0.88798955     0.10600
H1773       H  0.96327578  0.86033402  0.89436285     0.16000
H1774       H  0.89772992  0.86717512  0.95239201     0.11900
H1775       H  0.82908313  0.72976181  0.97728600     0.14700
H1776       H  0.89664368  0.72430528  0.92241343     0.14500
C1777       C  0.71000373  0.64005844  0.98129689    -0.18400
C1778       C  0.68150072  0.62588908  0.97529307    -0.20500
C1779       C  0.66936176  0.60090515  0.95503161     0.20100
C1780       C  0.68592846  0.58966142  0.94153812    -0.03400
C1781       C  0.71450908  0.60365733  0.94812265    -0.06500
C1782       C  0.72677589  0.62931188  0.96748713     0.20400
C1783       C  0.73099784  0.59239517  0.93443271     0.18600
C1784       C  0.71882672  0.56722669  0.91461459    -0.18000
C1785       C  0.69068868  0.55366478  0.90757950    -0.20200
C1786       C  0.67418257  0.56486596  0.92060470     0.20100
C1787       C  0.64637914  0.55211908  0.91226637    -0.33200
C1788       C  0.62991987  0.56345284  0.92503910     0.00700
C1789       C  0.64125192  0.58743211  0.94711372    -0.24600
C1790       C  0.75572098  0.64409779  0.97179660    -0.29100
C1791       C  0.77230089  0.63316833  0.95759938     0.06400
C1792       C  0.75960787  0.60695526  0.93977814    -0.27800
H1793       H  0.71901820  0.65962856  0.99639243     0.11100
H1794       H  0.66909874  0.63480390  0.98589720     0.12300
H1795       H  0.73124835  0.55834952  0.90392886     0.11300
H1796       H  0.68192271  0.53458236  0.89159559     0.10600
H1797       H  0.63761840  0.53354535  0.89540004     0.16000
H1798       H  0.62863776  0.59633651  0.95682909     0.11900
H1799       H  0.76543233  0.66425747  0.98571579     0.14700
H1800       H  0.77231271  0.59853409  0.92851879     0.14500
loop_ 
_geom_bond_atom_site_label_1 
_geom_bond_atom_site_label_2 
_geom_bond_distance 
_geom_bond_site_symmetry_2 
_ccdc_geom_bond_type 
C1            N2   1.358       .  A
C1            N6   1.356       .  A
C1          C393   1.482       .  S
N2            C3   1.358       .  A
C3            N4   1.358       .  A
C3          C441   1.477       .  S
N4            C5   1.359       .  A
C5            N6   1.358       .  A
C5          C417   1.475       .  S
C7            N8   1.355       .  A
C7           N12   1.357       .  A
C7          C318   1.482       .  S
N8            C9   1.357       .  A
C9           N10   1.360       .  A
C9          C366   1.478       .  S
N10          C11   1.362       .  A
C11          N12   1.360       .  A
C11         C342   1.483       .  S
C13          N14   1.358       .  A
C13          N18   1.361       .  A
C13         C297   1.485       .  S
N14          C15   1.357       .  A
C15          N16   1.358       .  A
C15         C249   1.482       .  S
N16          C17   1.358       .  A
C17          N18   1.360       .  A
C17         C273   1.485       .  S
C19          N20   1.356       .  A
C19          N24   1.360       .  A
C19         C222   1.482       .  S
N20          C21   1.355       .  A
C21          N22   1.358       .  A
C21         C198   1.475       .  S
N22          C23   1.361       .  A
C23          N24   1.361       .  A
C23         C177   1.485       .  S
N25          N26   1.321       .  A
N25        N1381   1.317       .  A
N25         Mn54   2.211       .  S
N26          C33   1.354   1_556  A
N27          N29   1.315       .  A
N27          N28   1.320       .  A
N27        Mn943   2.194       .  S
N28          C34   1.352       .  A
N29          N30   1.319       .  A
N29        Mn504   2.199   1_545  S
N30          C34   1.353       .  A
N31          N32   1.322       .  A
N31        N1375   1.317   1_445  A
N31         Mn43   2.209       .  S
N32        C1383   1.354   1_446  A
C33        N1382   1.354   1_554  A
C33         C150   1.482       .  S
C34         C390   1.474       .  S
N35          N41   1.316       .  A
N35          N36   1.321       .  A
N35         Mn65   2.203       .  S
N36          C44   1.353       .  A
N37          N38   1.322       .  A
N37          N39   1.316       .  A
N37         Mn43   2.203       .  S
N38          C45   1.353       .  A
N39          N40   1.320       .  A
N39         Mn65   2.205       .  S
N40          C45   1.353       .  A
N41          N42   1.319       .  A
N41         Mn43   2.197       .  S
N42          C44   1.351       .  A
Mn43        N927   2.194   1_455  S
Mn43      Cl1417   2.543   1_445  S
C44         C246   1.467       .  S
C45         C438   1.476       .  S
N46          N47   1.322       .  A
N46          N52   1.317       .  A
N46         Mn54   2.212       .  S
N47          C55   1.354       .  A
N48          N50   1.315       .  A
N48          N49   1.316       .  A
N48         Mn66   2.182       .  S
N49          C56   1.349       .  A
N50          N51   1.322       .  A
N50         Mn54   2.206       .  S
N51          C56   1.355       .  A
N52          N53   1.321       .  A
N52         Mn66   2.205       .  S
N53          C55   1.352       .  A
Mn54        N479   2.199       .  S
Mn54        Cl67   2.553       .  S
C55         C270   1.474       .  S
C56         C414   1.468       .  S
N57          N58   1.320       .  A
N57          N63   1.315       .  A
N57        Mn515   2.198       .  S
N58          C68   1.353       .  A
N59          N60   1.320       .  A
N59        N1411   1.316       .  A
N59         Mn66   2.196       .  S
N60          C69   1.353       .  A
N61          N62   1.321       .  A
N61        N1409   1.316   1_445  A
N61         Mn65   2.210       .  S
N62        C1419   1.355   1_545  A
N63          N64   1.320       .  A
N63        Mn966   2.202   1_455  S
N64          C68   1.353       .  A
Mn65        N507   2.198   1_545  S
Mn65      Cl1417   2.551   1_445  S
Mn66        N963   2.202       .  S
Mn66        Cl67   2.540       .  S
Cl67      Mn1393   2.543       .  S
Cl67      Mn1415   2.551       .  S
C68         C294   1.478       .  S
C69        N1412   1.355       .  A
C69         C129   1.479       .  S
N70          N71   1.320       .  A
N70        N1426   1.316       .  A
N70         Mn99   2.195       .  S
N71          C78   1.353       .  A
N72          N74   1.314       .  A
N72          N73   1.320       .  A
N72        Mn988   2.197       .  S
N73          C79   1.354       .  A
N74          N75   1.319       .  A
N74        Mn549   2.196   1_545  S
N75          C79   1.353       .  A
N76          N77   1.321       .  A
N76        N1420   1.316   1_445  A
N76         Mn88   2.215       .  S
N77        C1428   1.355   1_455  A
C78        N1427   1.355       .  A
C78         C126   1.480       .  S
C79         C321   1.476       .  S
N80          N86   1.317       .  A
N80          N81   1.320       .  A
N80        Mn110   2.203       .  S
N81          C89   1.352       .  A
N82          N83   1.322       .  A
N82          N84   1.316       .  A
N82         Mn88   2.200       .  S
N83          C90   1.353       .  A
N84          N85   1.318       .  A
N84        Mn110   2.201       .  S
N85          C90   1.352       .  A
N86          N87   1.321       .  A
N86         Mn88   2.207       .  S
N87          C89   1.352       .  A
Mn88        N972   2.197   1_455  S
Mn88      Cl1462   2.547   1_545  S
C89         C174   1.469       .  S
C90         C369   1.473       .  S
N91          N92   1.315       .  A
N91          N97   1.316       .  A
N91         Mn99   2.181       .  S
N92         C100   1.348       .  A
N93          N95   1.315       .  A
N93          N94   1.318       .  A
N93        Mn111   2.193       .  S
N94         C101   1.350       .  A
N95          N96   1.322       .  A
N95         Mn99   2.206       .  S
N96         C101   1.355       .  A
N97          N98   1.324       .  A
N97        Mn111   2.216       .  S
N98         C100   1.357       .  A
Mn99        N524   2.196       .  S
Mn99       Cl112   2.546       .  S
C100        C201   1.473       .  S
C101        C345   1.472       .  S
N102        N103   1.320       .  A
N102        N108   1.315       .  A
N102       Mn560   2.195       .  S
N103        C113   1.353       .  A
N104        N105   1.321       .  A
N104       N1456   1.316       .  A
N104       Mn111   2.205       .  S
N105        C114   1.353       .  A
N106        N107   1.323       .  A
N106       N1454   1.316   1_445  A
N106       Mn110   2.213       .  S
N107       C1464   1.355   1_545  A
N108        N109   1.320       .  A
N108      Mn1011   2.206   1_455  S
N109        C113   1.354       .  A
Mn110       N552   2.195   1_545  S
Mn110     Cl1462   2.547   1_545  S
Mn111      N1008   2.206       .  S
Mn111      Cl112   2.545       .  S
Cl112     Mn1438   2.547       .  S
Cl112     Mn1460   2.547       .  S
C113        C225   1.478       .  S
C114       N1457   1.355       .  A
C114        C153   1.483       .  S
C115        C116   1.400       .  A
C115        C120   1.404       .  A
C115        H131   1.084       .  S
C116        C117   1.404       .  A
C116        H132   1.084       .  S
C117        C127   1.405       .  A
C117        C118   1.411       .  A
C118        C119   1.412       .  A
C118       C1474   1.412       .  A
C119        C120   1.412       .  A
C119       C1471   1.411       .  A
C120        C128   1.405       .  A
C121        C130   1.401       .  A
C121        C122   1.403       .  A
C121       C1469   1.411   1_445  A
C122        C123   1.398       .  A
C122        H133   1.084       .  S
C123        C124   1.403       .  A
C123        H134   1.083       .  S
C124        C125   1.402       .  A
C124       C1468   1.412   1_445  A
C125       C1476   1.405   1_445  A
C125        H135   1.084       .  S
C126        C127   1.408       .  A
C126       C1475   1.405       .  A
C127        H136   1.084       .  S
C128        C129   1.408       .  A
C128        H137   1.084       .  S
C129       C1480   1.405       .  A
C130       C1479   1.405   1_545  A
C130        H138   1.084       .  S
C139        C140   1.399       .  A
C139        C144   1.404       .  A
C139        H155   1.083       .  S
C140        C141   1.404       .  A
C140        H156   1.084       .  S
C141        C151   1.404       .  A
C141        C142   1.411       .  A
C142        C143   1.414       .  A
C142       C1048   1.412       .  A
C143        C144   1.412       .  A
C143       C1045   1.412       .  A
C144        C152   1.404       .  A
C145        C154   1.406       .  A
C145        C146   1.404       .  A
C145       C1043   1.412       .  A
C146        C147   1.401       .  A
C146        H157   1.084       .  S
C147        C148   1.404       .  A
C147        H158   1.084       .  S
C148        C149   1.406       .  A
C148       C1042   1.412       .  A
C149       C1050   1.407   1_455  A
C149        H159   1.084       .  S
C150        C151   1.407       .  A
C150       C1049   1.407       .  A
C151        H160   1.084       .  S
C152        C153   1.407       .  A
C152        H161   1.084       .  S
C153       C1054   1.407       .  A
C154       C1053   1.407       .  A
C154        H162   1.084       .  S
C163        C164   1.398       .  A
C163        C168   1.403       .  A
C163        H179   1.084       .  S
C164        C165   1.403       .  A
C164        H180   1.084       .  S
C165        C175   1.401       .  A
C165        C166   1.412       .  A
C166        C172   1.413       .  A
C166        C167   1.412       .  A
C167        C169   1.411       .  A
C167        C168   1.411       .  A
C168        C176   1.402       .  A
C169        C178   1.404       .  A
C169        C170   1.404       .  A
C170        C171   1.400       .  A
C170        H181   1.084       .  S
C171        C172   1.403       .  A
C171        H182   1.083       .  S
C172        C173   1.405       .  A
C173        C174   1.403       .  A
C173        H183   1.084       .  S
C174        C175   1.403       .  A
C175        H184   1.085       .  S
C176        C177   1.408       .  A
C176        H185   1.084       .  S
C177        C178   1.409       .  A
C178        H186   1.084       .  S
C187        C188   1.399       .  A
C187        C192   1.403       .  A
C187        H203   1.083       .  S
C188        C189   1.403       .  A
C188        H204   1.084       .  S
C189        C199   1.403       .  A
C189        C190   1.412       .  A
C190        C196   1.411       .  A
C190        C191   1.410       .  A
C191        C193   1.411       .  A
C191        C192   1.413       .  A
C192        C200   1.404       .  A
C193        C202   1.399       .  A
C193        C194   1.403       .  A
C194        C195   1.398       .  A
C194        H205   1.084       .  S
C195        C196   1.403       .  A
C195        H206   1.084       .  S
C196        C197   1.400       .  A
C197        C198   1.406       .  A
C197        H207   1.085       .  S
C198        C199   1.405       .  A
C199        H208   1.084       .  S
C200        C201   1.404       .  A
C200        H209   1.084       .  S
C201        C202   1.406       .  A
C202        H210   1.085       .  S
C211        C212   1.399       .  A
C211        C216   1.403       .  A
C211        H227   1.083       .  S
C212        C213   1.403       .  A
C212        H228   1.084       .  S
C213        C223   1.403       .  A
C213        C214   1.412       .  A
C214        C220   1.410       .  A
C214        C215   1.411       .  A
C215        C217   1.412       .  A
C215        C216   1.411       .  A
C216        C224   1.402       .  A
C217        C226   1.402       .  A
C217        C218   1.403       .  A
C218        C219   1.398       .  A
C218        H229   1.084       .  S
C219        C220   1.404       .  A
C219        H230   1.084       .  S
C220        C221   1.401       .  A
C221        C222   1.409       .  A
C221        H231   1.084       .  S
C222        C223   1.407       .  A
C223        H232   1.084       .  S
C224        C225   1.406       .  A
C224        H233   1.084       .  S
C225        C226   1.406       .  A
C226        H234   1.084       .  S
C235        C236   1.399       .  A
C235        C240   1.404       .  A
C235        H251   1.084       .  S
C236        C237   1.403       .  A
C236        H252   1.084       .  S
C237        C247   1.403       .  A
C237        C238   1.412       .  A
C238        C244   1.412       .  A
C238        C239   1.410       .  A
C239        C241   1.411       .  A
C239        C240   1.411       .  A
C240        C248   1.403       .  A
C241        C250   1.401       .  A
C241        C242   1.403       .  A
C242        C243   1.398       .  A
C242        H253   1.084       .  S
C243        C244   1.403       .  A
C243        H254   1.084       .  S
C244        C245   1.401       .  A
C245        C246   1.403       .  A
C245        H255   1.085       .  S
C246        C247   1.403       .  A
C247        H256   1.085       .  S
C248        C249   1.409       .  A
C248        H257   1.084       .  S
C249        C250   1.407       .  A
C250        H258   1.084       .  S
C259        C260   1.399       .  A
C259        C264   1.404       .  A
C259        H275   1.083       .  S
C260        C261   1.403       .  A
C260        H276   1.083       .  S
C261        C271   1.404       .  A
C261        C262   1.412       .  A
C262        C268   1.412       .  A
C262        C263   1.413       .  A
C263        C265   1.411       .  A
C263        C264   1.411       .  A
C264        C272   1.404       .  A
C265        C274   1.404       .  A
C265        C266   1.404       .  A
C266        C267   1.400       .  A
C266        H277   1.084       .  S
C267        C268   1.404       .  A
C267        H278   1.084       .  S
C268        C269   1.404       .  A
C269        C270   1.406       .  A
C269        H279   1.084       .  S
C270        C271   1.403       .  A
C271        H280   1.084       .  S
C272        C273   1.408       .  A
C272        H281   1.084       .  S
C273        C274   1.409       .  A
C274        H282   1.084       .  S
C283        C284   1.399       .  A
C283        C288   1.404       .  A
C283        H299   1.084       .  S
C284        C285   1.403       .  A
C284        H300   1.084       .  S
C285        C295   1.403       .  A
C285        C286   1.412       .  A
C286        C292   1.411       .  A
C286        C287   1.412       .  A
C287        C289   1.411       .  A
C287        C288   1.410       .  A
C288        C296   1.402       .  A
C289        C298   1.403       .  A
C289        C290   1.403       .  A
C290        C291   1.398       .  A
C290        H301   1.084       .  S
C291        C292   1.403       .  A
C291        H302   1.084       .  S
C292        C293   1.402       .  A
C293        C294   1.406       .  A
C293        H303   1.084       .  S
C294        C295   1.406       .  A
C295        H304   1.084       .  S
C296        C297   1.409       .  A
C296        H305   1.084       .  S
C297        C298   1.408       .  A
C298        H306   1.084       .  S
C307        C308   1.399       .  A
C307        C312   1.403       .  A
C307        H323   1.084       .  S
C308        C309   1.403       .  A
C308        H324   1.084       .  S
C309        C319   1.403       .  A
C309        C310   1.411       .  A
C310        C316   1.411       .  A
C310        C311   1.411       .  A
C311        C313   1.411       .  A
C311        C312   1.412       .  A
C312        C320   1.402       .  A
C313        C322   1.401       .  A
C313        C314   1.403       .  A
C314        C315   1.398       .  A
C314        H325   1.084       .  S
C315        C316   1.403       .  A
C315        H326   1.084       .  S
C316        C317   1.401       .  A
C317        C318   1.408       .  A
C317        H327   1.084       .  S
C318        C319   1.408       .  A
C319        H328   1.084       .  S
C320        C321   1.406       .  A
C320        H329   1.084       .  S
C321        C322   1.406       .  A
C322        H330   1.084       .  S
C331        C332   1.400       .  A
C331        C336   1.404       .  A
C331        H347   1.083       .  S
C332        C333   1.404       .  A
C332        H348   1.084       .  S
C333        C343   1.405       .  A
C333        C334   1.412       .  A
C334        C340   1.410       .  A
C334        C335   1.411       .  A
C335        C337   1.412       .  A
C335        C336   1.412       .  A
C336        C344   1.404       .  A
C337        C346   1.401       .  A
C337        C338   1.403       .  A
C338        C339   1.398       .  A
C338        H349   1.084       .  S
C339        C340   1.403       .  A
C339        H350   1.084       .  S
C340        C341   1.401       .  A
C341        C342   1.408       .  A
C341        H351   1.084       .  S
C342        C343   1.407       .  A
C343        H352   1.084       .  S
C344        C345   1.405       .  A
C344        H353   1.084       .  S
C345        C346   1.404       .  A
C346        H354   1.085       .  S
C355        C356   1.396       .  A
C355        C360   1.402       .  A
C355        H371   1.084       .  S
C356        C357   1.403       .  A
C356        H372   1.084       .  S
C357        C367   1.398       .  A
C357        C358   1.410       .  A
C358        C364   1.413       .  A
C358        C359   1.411       .  A
C359        C361   1.412       .  A
C359        C360   1.412       .  A
C360        C368   1.399       .  A
C361        C370   1.405       .  A
C361        C362   1.404       .  A
C362        C363   1.401       .  A
C362        H373   1.083       .  S
C363        C364   1.404       .  A
C363        H374   1.083       .  S
C364        C365   1.406       .  A
C365        C366   1.407       .  A
C365        H375   1.084       .  S
C366        C367   1.406       .  A
C367        H376   1.084       .  S
C368        C369   1.403       .  A
C368        H377   1.085       .  S
C369        C370   1.406       .  A
C370        H378   1.084       .  S
C379        C380   1.399       .  A
C379        C384   1.404       .  A
C379        H395   1.084       .  S
C380        C381   1.404       .  A
C380        H396   1.084       .  S
C381        C391   1.403       .  A
C381        C382   1.412       .  A
C382        C388   1.411       .  A
C382        C383   1.410       .  A
C383        C385   1.411       .  A
C383        C384   1.411       .  A
C384        C392   1.403       .  A
C385        C394   1.400       .  A
C385        C386   1.403       .  A
C386        C387   1.397       .  A
C386        H397   1.084       .  S
C387        C388   1.402       .  A
C387        H398   1.084       .  S
C388        C389   1.400       .  A
C389        C390   1.404       .  A
C389        H399   1.084       .  S
C390        C391   1.406       .  A
C391        H400   1.084       .  S
C392        C393   1.409       .  A
C392        H401   1.084       .  S
C393        C394   1.407       .  A
C394        H402   1.084       .  S
C403        C404   1.399       .  A
C403        C408   1.404       .  A
C403        H419   1.084       .  S
C404        C405   1.403       .  A
C404        H420   1.084       .  S
C405        C415   1.403       .  A
C405        C406   1.412       .  A
C406        C412   1.411       .  A
C406        C407   1.409       .  A
C407        C409   1.411       .  A
C407        C408   1.412       .  A
C408        C416   1.403       .  A
C409        C418   1.399       .  A
C409        C410   1.403       .  A
C410        C411   1.396       .  A
C410        H421   1.084       .  S
C411        C412   1.402       .  A
C411        H422   1.084       .  S
C412        C413   1.398       .  A
C413        C414   1.403       .  A
C413        H423   1.085       .  S
C414        C415   1.404       .  A
C415        H424   1.084       .  S
C416        C417   1.406       .  A
C416        H425   1.084       .  S
C417        C418   1.406       .  A
C418        H426   1.084       .  S
C427        C428   1.401       .  A
C427        C432   1.404       .  A
C427        H443   1.084       .  S
C428        C429   1.405       .  A
C428        H444   1.083       .  S
C429        C439   1.406       .  A
C429        C430   1.412       .  A
C430        C436   1.412       .  A
C430        C431   1.411       .  A
C431        C433   1.411       .  A
C431        C432   1.412       .  A
C432        C440   1.406       .  A
C433        C442   1.399       .  A
C433        C434   1.402       .  A
C434        C435   1.397       .  A
C434        H445   1.084       .  S
C435        C436   1.402       .  A
C435        H446   1.084       .  S
C436        C437   1.400       .  A
C437        C438   1.403       .  A
C437        H447   1.085       .  S
C438        C439   1.407       .  A
C439        H448   1.084       .  S
C440        C441   1.407       .  A
C440        H449   1.084       .  S
C441        C442   1.405       .  A
C442        H450   1.084       .  S
C451        N452   1.358       .  A
C451        N456   1.356       .  A
C451        C843   1.482       .  S
N452        C453   1.358       .  A
C453        N454   1.358       .  A
C453        C891   1.477       .  S
N454        C455   1.359       .  A
C455        N456   1.358       .  A
C455        C867   1.475       .  S
C457        N458   1.355       .  A
C457        N462   1.357       .  A
C457        C768   1.482       .  S
N458        C459   1.357       .  A
C459        N460   1.360       .  A
C459        C816   1.478       .  S
N460        C461   1.362       .  A
C461        N462   1.360       .  A
C461        C792   1.483       .  S
C463        N464   1.358       .  A
C463        N468   1.361       .  A
C463        C747   1.485       .  S
N464        C465   1.357       .  A
C465        N466   1.358       .  A
C465        C699   1.482       .  S
N466        C467   1.358       .  A
C467        N468   1.360       .  A
C467        C723   1.485       .  S
C469        N470   1.356       .  A
C469        N474   1.360       .  A
C469        C672   1.482       .  S
N470        C471   1.355       .  A
C471        N472   1.358       .  A
C471        C648   1.475       .  S
N472        C473   1.361       .  A
C473        N474   1.361       .  A
C473        C627   1.485       .  S
N475        N476   1.321       .  A
N475        N931   1.317   1_565  A
N475       Mn504   2.211       .  S
N476        C483   1.354   1_556  A
N477        N479   1.315       .  A
N477        N478   1.320       .  A
N477      Mn1393   2.194       .  S
N478        C484   1.352       .  A
N479        N480   1.319       .  A
N480        C484   1.353       .  A
N481        N925   1.317   1_455  A
N481        N482   1.322       .  A
N481       Mn493   2.209       .  S
N482        C933   1.354   1_456  A
C483        N932   1.354   1_564  A
C483        C600   1.482       .  S
C484        C840   1.474       .  S
N485        N491   1.316       .  A
N485        N486   1.321       .  A
N485       Mn515   2.203       .  S
N486        C494   1.353       .  A
N487        N488   1.322       .  A
N487        N489   1.316       .  A
N487       Mn493   2.203       .  S
N488        C495   1.353       .  A
N489        N490   1.320       .  A
N489       Mn515   2.205       .  S
N490        C495   1.353       .  A
N491        N492   1.319       .  A
N491       Mn493   2.197       .  S
N492        C494   1.351       .  A
Mn493      N1377   2.194   1_455  S
Mn493      Cl967   2.543   1_455  S
C494        C696   1.467       .  S
C495        C888   1.476       .  S
N496        N497   1.322       .  A
N496        N502   1.317       .  A
N496       Mn504   2.212       .  S
N497        C505   1.354       .  A
N498        N500   1.315       .  A
N498        N499   1.316       .  A
N498       Mn516   2.182       .  S
N499        C506   1.349       .  A
N500        N501   1.322       .  A
N500       Mn504   2.206       .  S
N501        C506   1.355       .  A
N502        N503   1.321       .  A
N502       Mn516   2.205       .  S
N503        C505   1.352       .  A
Mn504      Cl517   2.553       .  S
C505        C720   1.474       .  S
C506        C864   1.468       .  S
N507        N508   1.320       .  A
N507        N513   1.315       .  A
N508        C518   1.353       .  A
N509        N510   1.320       .  A
N509        N961   1.316   1_565  A
N509       Mn516   2.196       .  S
N510        C519   1.353       .  A
N511        N959   1.316   1_455  A
N511        N512   1.321       .  A
N511       Mn515   2.210       .  S
N512        C969   1.355       .  A
N513        N514   1.320       .  A
N513      Mn1416   2.202   1_455  S
N514        C518   1.353       .  A
Mn515      Cl967   2.551   1_455  S
Mn516      N1413   2.202       .  S
Mn516      Cl517   2.540       .  S
Cl517      Mn943   2.543   1_565  S
Cl517      Mn965   2.551   1_565  S
C518        C744   1.478       .  S
C519        N962   1.355   1_565  A
C519        C579   1.479       .  S
N520        N521   1.320       .  A
N520        N976   1.316   1_565  A
N520       Mn549   2.195       .  S
N521        C528   1.353   1_565  A
N522        N524   1.314       .  A
N522        N523   1.320       .  A
N522      Mn1438   2.197       .  S
N523        C529   1.354       .  A
N524        N525   1.319       .  A
N525        C529   1.353       .  A
N526        N970   1.316   1_455  A
N526        N527   1.321       .  A
N526       Mn538   2.215       .  S
N527        C978   1.355   1_455  A
C528        N977   1.355       .  A
C528        C576   1.480   1_545  S
C529        C771   1.476       .  S
N530        N536   1.317       .  A
N530        N531   1.320       .  A
N530       Mn560   2.203       .  S
N531        C539   1.352       .  A
N532        N533   1.322       .  A
N532        N534   1.316       .  A
N532       Mn538   2.200       .  S
N533        C540   1.353       .  A
N534        N535   1.318       .  A
N534       Mn560   2.201       .  S
N535        C540   1.352       .  A
N536        N537   1.321       .  A
N536       Mn538   2.207       .  S
N537        C539   1.352       .  A
Mn538      N1422   2.197   1_455  S
Mn538     Cl1012   2.547       .  S
C539        C624   1.469       .  S
C540        C819   1.473       .  S
N541        N542   1.315       .  A
N541        N547   1.316       .  A
N541       Mn549   2.181       .  S
N542        C550   1.348       .  A
N543        N545   1.315       .  A
N543        N544   1.318       .  A
N543       Mn561   2.193       .  S
N544        C551   1.350       .  A
N545        N546   1.322       .  A
N545       Mn549   2.206       .  S
N546        C551   1.355       .  A
N547        N548   1.324       .  A
N547       Mn561   2.216       .  S
N548        C550   1.357       .  A
Mn549      Cl562   2.546       .  S
C550        C651   1.473       .  S
C551        C795   1.472       .  S
N552        N553   1.320       .  A
N552        N558   1.315       .  A
N553        C563   1.353       .  A
N554        N555   1.321       .  A
N554       N1006   1.316   1_565  A
N554       Mn561   2.205       .  S
N555        C564   1.353       .  A
N556       N1004   1.316   1_455  A
N556        N557   1.323       .  A
N556       Mn560   2.213       .  S
N557       C1014   1.355       .  A
N558        N559   1.320       .  A
N558      Mn1461   2.206   1_455  S
N559        C563   1.354       .  A
Mn560     Cl1012   2.547       .  S
Mn561      N1458   2.206       .  S
Mn561      Cl562   2.545       .  S
Cl562      Mn988   2.547   1_565  S
Cl562     Mn1010   2.547   1_565  S
C563        C675   1.478       .  S
C564       N1007   1.355   1_565  A
C564        C603   1.483       .  S
C565        C566   1.400       .  A
C565        C570   1.404       .  A
C565        H581   1.084       .  S
C566        C567   1.404       .  A
C566        H582   1.084       .  S
C567        C577   1.405       .  A
C567        C568   1.411       .  A
C568       C1024   1.412   1_565  A
C568        C569   1.412       .  A
C569       C1021   1.411   1_565  A
C569        C570   1.412       .  A
C570        C578   1.405       .  A
C571       C1019   1.411   1_455  A
C571        C580   1.401       .  A
C571        C572   1.403       .  A
C572        C573   1.398       .  A
C572        H583   1.084       .  S
C573        C574   1.403       .  A
C573        H584   1.083       .  S
C574       C1018   1.412   1_455  A
C574        C575   1.402       .  A
C575       C1026   1.405   1_455  A
C575        H585   1.084       .  S
C576       C1025   1.405   1_565  A
C576        C577   1.408       .  A
C577        H586   1.084       .  S
C578        C579   1.408       .  A
C578        H587   1.084       .  S
C579       C1030   1.405   1_565  A
C580       C1029   1.405       .  A
C580        H588   1.084       .  S
C589        C590   1.399       .  A
C589        C594   1.404       .  A
C589        H605   1.083       .  S
C590        C591   1.404       .  A
C590        H606   1.084       .  S
C591        C601   1.404       .  A
C591        C592   1.411       .  A
C592       C1498   1.412   1_565  A
C592        C593   1.414       .  A
C593       C1495   1.412   1_565  A
C593        C594   1.412       .  A
C594        C602   1.404       .  A
C595       C1493   1.412   1_545  A
C595        C604   1.406       .  A
C595        C596   1.404       .  A
C596        C597   1.401       .  A
C596        H607   1.084       .  S
C597        C598   1.404       .  A
C597        H608   1.084       .  S
C598       C1492   1.412   1_545  A
C598        C599   1.406       .  A
C599       C1500   1.407   1_445  A
C599        H609   1.084       .  S
C600       C1499   1.407   1_565  A
C600        C601   1.407       .  A
C601        H610   1.084       .  S
C602        C603   1.407       .  A
C602        H611   1.084       .  S
C603       C1504   1.407   1_565  A
C604       C1503   1.407   1_545  A
C604        H612   1.084       .  S
C613        C614   1.398       .  A
C613        C618   1.403       .  A
C613        H629   1.084       .  S
C614        C615   1.403       .  A
C614        H630   1.084       .  S
C615        C625   1.401       .  A
C615        C616   1.412       .  A
C616        C622   1.413       .  A
C616        C617   1.412       .  A
C617        C619   1.411       .  A
C617        C618   1.411       .  A
C618        C626   1.402       .  A
C619        C628   1.404       .  A
C619        C620   1.404       .  A
C620        C621   1.400       .  A
C620        H631   1.084       .  S
C621        C622   1.403       .  A
C621        H632   1.083       .  S
C622        C623   1.405       .  A
C623        C624   1.403       .  A
C623        H633   1.084       .  S
C624        C625   1.403       .  A
C625        H634   1.085       .  S
C626        C627   1.408       .  A
C626        H635   1.084       .  S
C627        C628   1.409       .  A
C628        H636   1.084       .  S
C637        C638   1.399       .  A
C637        C642   1.403       .  A
C637        H653   1.083       .  S
C638        C639   1.403       .  A
C638        H654   1.084       .  S
C639        C649   1.403       .  A
C639        C640   1.412       .  A
C640        C646   1.411       .  A
C640        C641   1.410       .  A
C641        C643   1.411       .  A
C641        C642   1.413       .  A
C642        C650   1.404       .  A
C643        C652   1.399       .  A
C643        C644   1.403       .  A
C644        C645   1.398       .  A
C644        H655   1.084       .  S
C645        C646   1.403       .  A
C645        H656   1.084       .  S
C646        C647   1.400       .  A
C647        C648   1.406       .  A
C647        H657   1.085       .  S
C648        C649   1.405       .  A
C649        H658   1.084       .  S
C650        C651   1.404       .  A
C650        H659   1.084       .  S
C651        C652   1.406       .  A
C652        H660   1.085       .  S
C661        C662   1.399       .  A
C661        C666   1.403       .  A
C661        H677   1.083       .  S
C662        C663   1.403       .  A
C662        H678   1.084       .  S
C663        C673   1.403       .  A
C663        C664   1.412       .  A
C664        C670   1.410       .  A
C664        C665   1.411       .  A
C665        C667   1.412       .  A
C665        C666   1.411       .  A
C666        C674   1.402       .  A
C667        C676   1.402       .  A
C667        C668   1.403       .  A
C668        C669   1.398       .  A
C668        H679   1.084       .  S
C669        C670   1.404       .  A
C669        H680   1.084       .  S
C670        C671   1.401       .  A
C671        C672   1.409       .  A
C671        H681   1.084       .  S
C672        C673   1.407       .  A
C673        H682   1.084       .  S
C674        C675   1.406       .  A
C674        H683   1.084       .  S
C675        C676   1.406       .  A
C676        H684   1.084       .  S
C685        C686   1.399       .  A
C685        C690   1.404       .  A
C685        H701   1.084       .  S
C686        C687   1.403       .  A
C686        H702   1.084       .  S
C687        C697   1.403       .  A
C687        C688   1.412       .  A
C688        C694   1.412       .  A
C688        C689   1.410       .  A
C689        C691   1.411       .  A
C689        C690   1.411       .  A
C690        C698   1.403       .  A
C691        C700   1.401       .  A
C691        C692   1.403       .  A
C692        C693   1.398       .  A
C692        H703   1.084       .  S
C693        C694   1.403       .  A
C693        H704   1.084       .  S
C694        C695   1.401       .  A
C695        C696   1.403       .  A
C695        H705   1.085       .  S
C696        C697   1.403       .  A
C697        H706   1.085       .  S
C698        C699   1.409       .  A
C698        H707   1.084       .  S
C699        C700   1.407       .  A
C700        H708   1.084       .  S
C709        C710   1.399       .  A
C709        C714   1.404       .  A
C709        H725   1.083       .  S
C710        C711   1.403       .  A
C710        H726   1.083       .  S
C711        C721   1.404       .  A
C711        C712   1.412       .  A
C712        C718   1.412       .  A
C712        C713   1.413       .  A
C713        C715   1.411       .  A
C713        C714   1.411       .  A
C714        C722   1.404       .  A
C715        C724   1.404       .  A
C715        C716   1.404       .  A
C716        C717   1.400       .  A
C716        H727   1.084       .  S
C717        C718   1.404       .  A
C717        H728   1.084       .  S
C718        C719   1.404       .  A
C719        C720   1.406       .  A
C719        H729   1.084       .  S
C720        C721   1.403       .  A
C721        H730   1.084       .  S
C722        C723   1.408       .  A
C722        H731   1.084       .  S
C723        C724   1.409       .  A
C724        H732   1.084       .  S
C733        C734   1.399       .  A
C733        C738   1.404       .  A
C733        H749   1.084       .  S
C734        C735   1.403       .  A
C734        H750   1.084       .  S
C735        C745   1.403       .  A
C735        C736   1.412       .  A
C736        C742   1.411       .  A
C736        C737   1.412       .  A
C737        C739   1.411       .  A
C737        C738   1.410       .  A
C738        C746   1.402       .  A
C739        C748   1.403       .  A
C739        C740   1.403       .  A
C740        C741   1.398       .  A
C740        H751   1.084       .  S
C741        C742   1.403       .  A
C741        H752   1.084       .  S
C742        C743   1.402       .  A
C743        C744   1.406       .  A
C743        H753   1.084       .  S
C744        C745   1.406       .  A
C745        H754   1.084       .  S
C746        C747   1.409       .  A
C746        H755   1.084       .  S
C747        C748   1.408       .  A
C748        H756   1.084       .  S
C757        C758   1.399       .  A
C757        C762   1.403       .  A
C757        H773   1.084       .  S
C758        C759   1.403       .  A
C758        H774   1.084       .  S
C759        C769   1.403       .  A
C759        C760   1.411       .  A
C760        C766   1.411       .  A
C760        C761   1.411       .  A
C761        C763   1.411       .  A
C761        C762   1.412       .  A
C762        C770   1.402       .  A
C763        C772   1.401       .  A
C763        C764   1.403       .  A
C764        C765   1.398       .  A
C764        H775   1.084       .  S
C765        C766   1.403       .  A
C765        H776   1.084       .  S
C766        C767   1.401       .  A
C767        C768   1.408       .  A
C767        H777   1.084       .  S
C768        C769   1.408       .  A
C769        H778   1.084       .  S
C770        C771   1.406       .  A
C770        H779   1.084       .  S
C771        C772   1.406       .  A
C772        H780   1.084       .  S
C781        C782   1.400       .  A
C781        C786   1.404       .  A
C781        H797   1.083       .  S
C782        C783   1.404       .  A
C782        H798   1.084       .  S
C783        C793   1.405       .  A
C783        C784   1.412       .  A
C784        C790   1.410       .  A
C784        C785   1.411       .  A
C785        C787   1.412       .  A
C785        C786   1.412       .  A
C786        C794   1.404       .  A
C787        C796   1.401       .  A
C787        C788   1.403       .  A
C788        C789   1.398       .  A
C788        H799   1.084       .  S
C789        C790   1.403       .  A
C789        H800   1.084       .  S
C790        C791   1.401       .  A
C791        C792   1.408       .  A
C791        H801   1.084       .  S
C792        C793   1.407       .  A
C793        H802   1.084       .  S
C794        C795   1.405       .  A
C794        H803   1.084       .  S
C795        C796   1.404       .  A
C796        H804   1.085       .  S
C805        C806   1.396       .  A
C805        C810   1.402       .  A
C805        H821   1.084       .  S
C806        C807   1.403       .  A
C806        H822   1.084       .  S
C807        C817   1.398       .  A
C807        C808   1.410       .  A
C808        C814   1.413       .  A
C808        C809   1.411       .  A
C809        C811   1.412       .  A
C809        C810   1.412       .  A
C810        C818   1.399       .  A
C811        C820   1.405       .  A
C811        C812   1.404       .  A
C812        C813   1.401       .  A
C812        H823   1.083       .  S
C813        C814   1.404       .  A
C813        H824   1.083       .  S
C814        C815   1.406       .  A
C815        C816   1.407       .  A
C815        H825   1.084       .  S
C816        C817   1.406       .  A
C817        H826   1.084       .  S
C818        C819   1.403       .  A
C818        H827   1.085       .  S
C819        C820   1.406       .  A
C820        H828   1.084       .  S
C829        C830   1.399       .  A
C829        C834   1.404       .  A
C829        H845   1.084       .  S
C830        C831   1.404       .  A
C830        H846   1.084       .  S
C831        C841   1.403       .  A
C831        C832   1.412       .  A
C832        C838   1.411       .  A
C832        C833   1.410       .  A
C833        C835   1.411       .  A
C833        C834   1.411       .  A
C834        C842   1.403       .  A
C835        C844   1.400       .  A
C835        C836   1.403       .  A
C836        C837   1.397       .  A
C836        H847   1.084       .  S
C837        C838   1.402       .  A
C837        H848   1.084       .  S
C838        C839   1.400       .  A
C839        C840   1.404       .  A
C839        H849   1.084       .  S
C840        C841   1.406       .  A
C841        H850   1.084       .  S
C842        C843   1.409       .  A
C842        H851   1.084       .  S
C843        C844   1.407       .  A
C844        H852   1.084       .  S
C853        C854   1.399       .  A
C853        C858   1.404       .  A
C853        H869   1.084       .  S
C854        C855   1.403       .  A
C854        H870   1.084       .  S
C855        C865   1.403       .  A
C855        C856   1.412       .  A
C856        C862   1.411       .  A
C856        C857   1.409       .  A
C857        C859   1.411       .  A
C857        C858   1.412       .  A
C858        C866   1.403       .  A
C859        C868   1.399       .  A
C859        C860   1.403       .  A
C860        C861   1.396       .  A
C860        H871   1.084       .  S
C861        C862   1.402       .  A
C861        H872   1.084       .  S
C862        C863   1.398       .  A
C863        C864   1.403       .  A
C863        H873   1.085       .  S
C864        C865   1.404       .  A
C865        H874   1.084       .  S
C866        C867   1.406       .  A
C866        H875   1.084       .  S
C867        C868   1.406       .  A
C868        H876   1.084       .  S
C877        C878   1.401       .  A
C877        C882   1.404       .  A
C877        H893   1.084       .  S
C878        C879   1.405       .  A
C878        H894   1.083       .  S
C879        C889   1.406       .  A
C879        C880   1.412       .  A
C880        C886   1.412       .  A
C880        C881   1.411       .  A
C881        C883   1.411       .  A
C881        C882   1.412       .  A
C882        C890   1.406       .  A
C883        C892   1.399       .  A
C883        C884   1.402       .  A
C884        C885   1.397       .  A
C884        H895   1.084       .  S
C885        C886   1.402       .  A
C885        H896   1.084       .  S
C886        C887   1.400       .  A
C887        C888   1.403       .  A
C887        H897   1.085       .  S
C888        C889   1.407       .  A
C889        H898   1.084       .  S
C890        C891   1.407       .  A
C890        H899   1.084       .  S
C891        C892   1.405       .  A
C892        H900   1.084       .  S
C901        N902   1.358       .  A
C901        N906   1.356       .  A
C901       C1293   1.482       .  S
N902        C903   1.358       .  A
C903        N904   1.358       .  A
C903       C1341   1.477       .  S
N904        C905   1.359       .  A
C905        N906   1.358       .  A
C905       C1317   1.475       .  S
C907        N908   1.355       .  A
C907        N912   1.357       .  A
C907       C1218   1.482       .  S
N908        C909   1.357       .  A
C909        N910   1.360       .  A
C909       C1266   1.478       .  S
N910        C911   1.362       .  A
C911        N912   1.360       .  A
C911       C1242   1.483       .  S
C913        N914   1.358       .  A
C913        N918   1.361       .  A
C913       C1197   1.485       .  S
N914        C915   1.357       .  A
C915        N916   1.358       .  A
C915       C1149   1.482       .  S
N916        C917   1.358       .  A
C917        N918   1.360       .  A
C917       C1173   1.485       .  S
C919        N920   1.356       .  A
C919        N924   1.360       .  A
C919       C1122   1.482       .  S
N920        C921   1.355       .  A
C921        N922   1.358       .  A
C921       C1098   1.475       .  S
N922        C923   1.361       .  A
C923        N924   1.361       .  A
C923       C1077   1.485       .  S
N925        N926   1.321       .  A
N925       Mn954   2.211       .  S
N926        C933   1.354   1_556  A
N927        N929   1.315       .  A
N927        N928   1.320       .  A
N928        C934   1.352       .  A
N929        N930   1.319       .  A
N929      Mn1404   2.199   1_545  S
N930        C934   1.353       .  A
N931        N932   1.322       .  A
N931       Mn943   2.209       .  S
C933       C1050   1.482       .  S
C934       C1290   1.474       .  S
N935        N941   1.316       .  A
N935        N936   1.321       .  A
N935       Mn965   2.203       .  S
N936        C944   1.353       .  A
N937        N938   1.322       .  A
N937        N939   1.316       .  A
N937       Mn943   2.203       .  S
N938        C945   1.353       .  A
N939        N940   1.320       .  A
N939       Mn965   2.205       .  S
N940        C945   1.353       .  A
N941        N942   1.319       .  A
N941       Mn943   2.197       .  S
N942        C944   1.351       .  A
C944       C1146   1.467       .  S
C945       C1338   1.476       .  S
N946        N947   1.322       .  A
N946        N952   1.317       .  A
N946       Mn954   2.212       .  S
N947        C955   1.354       .  A
N948        N950   1.315       .  A
N948        N949   1.316       .  A
N948       Mn966   2.182       .  S
N949        C956   1.349       .  A
N950        N951   1.322       .  A
N950       Mn954   2.206       .  S
N951        C956   1.355       .  A
N952        N953   1.321       .  A
N952       Mn966   2.205       .  S
N953        C955   1.352       .  A
Mn954      N1379   2.199       .  S
Mn954      Cl967   2.553       .  S
C955       C1170   1.474       .  S
C956       C1314   1.468       .  S
N957        N958   1.320       .  A
N957        N963   1.315       .  A
N957      Mn1415   2.198       .  S
N958        C968   1.353       .  A
N959        N960   1.320       .  A
N959       Mn966   2.196       .  S
N960        C969   1.353   1_655  A
N961        N962   1.321       .  A
N961       Mn965   2.210       .  S
N963        N964   1.320       .  A
N964        C968   1.353       .  A
Mn965      N1407   2.198   1_545  S
Mn966      Cl967   2.540       .  S
C968       C1194   1.478       .  S
C969       C1029   1.479       .  S
N970        N971   1.320       .  A
N970       Mn999   2.195       .  S
N971        C978   1.353       .  A
N972        N974   1.314       .  A
N972        N973   1.320       .  A
N973        C979   1.354       .  A
N974        N975   1.319       .  A
N974      Mn1449   2.196   1_545  S
N975        C979   1.353       .  A
N976        N977   1.321       .  A
N976       Mn988   2.215       .  S
C978       C1026   1.480       .  S
C979       C1221   1.476       .  S
N980        N986   1.317       .  A
N980        N981   1.320       .  A
N980      Mn1010   2.203       .  S
N981        C989   1.352       .  A
N982        N983   1.322       .  A
N982        N984   1.316       .  A
N982       Mn988   2.200       .  S
N983        C990   1.353       .  A
N984        N985   1.318       .  A
N984      Mn1010   2.201       .  S
N985        C990   1.352       .  A
N986        N987   1.321       .  A
N986       Mn988   2.207       .  S
N987        C989   1.352       .  A
C989       C1074   1.469       .  S
C990       C1269   1.473       .  S
N991        N992   1.315       .  A
N991        N997   1.316       .  A
N991       Mn999   2.181       .  S
N992       C1000   1.348       .  A
N993        N995   1.315       .  A
N993        N994   1.318       .  A
N993      Mn1011   2.193       .  S
N994       C1001   1.350       .  A
N995        N996   1.322       .  A
N995       Mn999   2.206       .  S
N996       C1001   1.355       .  A
N997        N998   1.324       .  A
N997      Mn1011   2.216       .  S
N998       C1000   1.357       .  A
Mn999      N1424   2.196       .  S
Mn999     Cl1012   2.546   1_655  S
C1000      C1101   1.473       .  S
C1001      C1245   1.472       .  S
N1002      N1003   1.320       .  A
N1002      N1008   1.315       .  A
N1002     Mn1460   2.195       .  S
N1003      C1013   1.353       .  A
N1004      N1005   1.321       .  A
N1004     Mn1011   2.205       .  S
N1005      C1014   1.353   1_655  A
N1006      N1007   1.323       .  A
N1006     Mn1010   2.213       .  S
N1008      N1009   1.320       .  A
N1009      C1013   1.354       .  A
Mn1010     N1452   2.195   1_545  S
Mn1011    Cl1012   2.545   1_655  S
C1013      C1125   1.478       .  S
C1014      C1053   1.483       .  S
C1015      C1016   1.400       .  A
C1015      C1020   1.404       .  A
C1015      H1031   1.084       .  S
C1016      C1017   1.404       .  A
C1016      H1032   1.084       .  S
C1017      C1027   1.405       .  A
C1017      C1018   1.411       .  A
C1018      C1019   1.412       .  A
C1019      C1020   1.412       .  A
C1020      C1028   1.405       .  A
C1021      C1030   1.401       .  A
C1021      C1022   1.403       .  A
C1022      C1023   1.398       .  A
C1022      H1033   1.084       .  S
C1023      C1024   1.403       .  A
C1023      H1034   1.083       .  S
C1024      C1025   1.402       .  A
C1025      H1035   1.084       .  S
C1026      C1027   1.408       .  A
C1027      H1036   1.084       .  S
C1028      C1029   1.408   1_655  A
C1028      H1037   1.084       .  S
C1030      H1038   1.084       .  S
C1039      C1040   1.399       .  A
C1039      C1044   1.404       .  A
C1039      H1055   1.084       .  S
C1040      C1041   1.404       .  A
C1040      H1056   1.084       .  S
C1041      C1051   1.404       .  A
C1041      C1042   1.411   1_655  A
C1042      C1043   1.414       .  A
C1043      C1044   1.412   1_455  A
C1044      C1052   1.404       .  A
C1045      C1054   1.406       .  A
C1045      C1046   1.404       .  A
C1046      C1047   1.401       .  A
C1046      H1057   1.084       .  S
C1047      C1048   1.404       .  A
C1047      H1058   1.084       .  S
C1048      C1049   1.406       .  A
C1049      H1059   1.084       .  S
C1050      C1051   1.407       .  A
C1051      H1060   1.084       .  S
C1052      C1053   1.407   1_655  A
C1052      H1061   1.084       .  S
C1054      H1062   1.084       .  S
C1063      C1064   1.398       .  A
C1063      C1068   1.403       .  A
C1063      H1079   1.084       .  S
C1064      C1065   1.403       .  A
C1064      H1080   1.084       .  S
C1065      C1075   1.401       .  A
C1065      C1066   1.412       .  A
C1066      C1072   1.413       .  A
C1066      C1067   1.412       .  A
C1067      C1069   1.411       .  A
C1067      C1068   1.411       .  A
C1068      C1076   1.402       .  A
C1069      C1078   1.404       .  A
C1069      C1070   1.404       .  A
C1070      C1071   1.400       .  A
C1070      H1081   1.084       .  S
C1071      C1072   1.403       .  A
C1071      H1082   1.083       .  S
C1072      C1073   1.405       .  A
C1073      C1074   1.403       .  A
C1073      H1083   1.084       .  S
C1074      C1075   1.403       .  A
C1075      H1084   1.085       .  S
C1076      C1077   1.408       .  A
C1076      H1085   1.084       .  S
C1077      C1078   1.409       .  A
C1078      H1086   1.084       .  S
C1087      C1088   1.399       .  A
C1087      C1092   1.403       .  A
C1087      H1103   1.083       .  S
C1088      C1089   1.403       .  A
C1088      H1104   1.084       .  S
C1089      C1099   1.403       .  A
C1089      C1090   1.412       .  A
C1090      C1096   1.411       .  A
C1090      C1091   1.410       .  A
C1091      C1093   1.411       .  A
C1091      C1092   1.413       .  A
C1092      C1100   1.404       .  A
C1093      C1102   1.399       .  A
C1093      C1094   1.403       .  A
C1094      C1095   1.398       .  A
C1094      H1105   1.084       .  S
C1095      C1096   1.403       .  A
C1095      H1106   1.084       .  S
C1096      C1097   1.400       .  A
C1097      C1098   1.406       .  A
C1097      H1107   1.085       .  S
C1098      C1099   1.405       .  A
C1099      H1108   1.084       .  S
C1100      C1101   1.404       .  A
C1100      H1109   1.084       .  S
C1101      C1102   1.406       .  A
C1102      H1110   1.085       .  S
C1111      C1112   1.399       .  A
C1111      C1116   1.403       .  A
C1111      H1127   1.083       .  S
C1112      C1113   1.403       .  A
C1112      H1128   1.084       .  S
C1113      C1123   1.403       .  A
C1113      C1114   1.412       .  A
C1114      C1120   1.410       .  A
C1114      C1115   1.411       .  A
C1115      C1117   1.412       .  A
C1115      C1116   1.411       .  A
C1116      C1124   1.402       .  A
C1117      C1126   1.402       .  A
C1117      C1118   1.403       .  A
C1118      C1119   1.398       .  A
C1118      H1129   1.084       .  S
C1119      C1120   1.404       .  A
C1119      H1130   1.084       .  S
C1120      C1121   1.401       .  A
C1121      C1122   1.409       .  A
C1121      H1131   1.084       .  S
C1122      C1123   1.407       .  A
C1123      H1132   1.084       .  S
C1124      C1125   1.406       .  A
C1124      H1133   1.084       .  S
C1125      C1126   1.406       .  A
C1126      H1134   1.084       .  S
C1135      C1136   1.399       .  A
C1135      C1140   1.404       .  A
C1135      H1151   1.084       .  S
C1136      C1137   1.403       .  A
C1136      H1152   1.084       .  S
C1137      C1147   1.403       .  A
C1137      C1138   1.412       .  A
C1138      C1144   1.412       .  A
C1138      C1139   1.410       .  A
C1139      C1141   1.411       .  A
C1139      C1140   1.411       .  A
C1140      C1148   1.403       .  A
C1141      C1150   1.401       .  A
C1141      C1142   1.403       .  A
C1142      C1143   1.398       .  A
C1142      H1153   1.084       .  S
C1143      C1144   1.403       .  A
C1143      H1154   1.084       .  S
C1144      C1145   1.401       .  A
C1145      C1146   1.403       .  A
C1145      H1155   1.085       .  S
C1146      C1147   1.403       .  A
C1147      H1156   1.085       .  S
C1148      C1149   1.409       .  A
C1148      H1157   1.084       .  S
C1149      C1150   1.407       .  A
C1150      H1158   1.084       .  S
C1159      C1160   1.399       .  A
C1159      C1164   1.404       .  A
C1159      H1175   1.083       .  S
C1160      C1161   1.403       .  A
C1160      H1176   1.083       .  S
C1161      C1171   1.404       .  A
C1161      C1162   1.412       .  A
C1162      C1168   1.412       .  A
C1162      C1163   1.413       .  A
C1163      C1165   1.411       .  A
C1163      C1164   1.411       .  A
C1164      C1172   1.404       .  A
C1165      C1174   1.404       .  A
C1165      C1166   1.404       .  A
C1166      C1167   1.400       .  A
C1166      H1177   1.084       .  S
C1167      C1168   1.404       .  A
C1167      H1178   1.084       .  S
C1168      C1169   1.404       .  A
C1169      C1170   1.406       .  A
C1169      H1179   1.084       .  S
C1170      C1171   1.403       .  A
C1171      H1180   1.084       .  S
C1172      C1173   1.408       .  A
C1172      H1181   1.084       .  S
C1173      C1174   1.409       .  A
C1174      H1182   1.084       .  S
C1183      C1184   1.399       .  A
C1183      C1188   1.404       .  A
C1183      H1199   1.084       .  S
C1184      C1185   1.403       .  A
C1184      H1200   1.084       .  S
C1185      C1195   1.403       .  A
C1185      C1186   1.412       .  A
C1186      C1192   1.411       .  A
C1186      C1187   1.412       .  A
C1187      C1189   1.411       .  A
C1187      C1188   1.410       .  A
C1188      C1196   1.402       .  A
C1189      C1198   1.403       .  A
C1189      C1190   1.403       .  A
C1190      C1191   1.398       .  A
C1190      H1201   1.084       .  S
C1191      C1192   1.403       .  A
C1191      H1202   1.084       .  S
C1192      C1193   1.402       .  A
C1193      C1194   1.406       .  A
C1193      H1203   1.084       .  S
C1194      C1195   1.406       .  A
C1195      H1204   1.084       .  S
C1196      C1197   1.409       .  A
C1196      H1205   1.084       .  S
C1197      C1198   1.408       .  A
C1198      H1206   1.084       .  S
C1207      C1208   1.399       .  A
C1207      C1212   1.403       .  A
C1207      H1223   1.084       .  S
C1208      C1209   1.403       .  A
C1208      H1224   1.084       .  S
C1209      C1219   1.403       .  A
C1209      C1210   1.411       .  A
C1210      C1216   1.411       .  A
C1210      C1211   1.411       .  A
C1211      C1213   1.411       .  A
C1211      C1212   1.412       .  A
C1212      C1220   1.402       .  A
C1213      C1222   1.401       .  A
C1213      C1214   1.403       .  A
C1214      C1215   1.398       .  A
C1214      H1225   1.084       .  S
C1215      C1216   1.403       .  A
C1215      H1226   1.084       .  S
C1216      C1217   1.401       .  A
C1217      C1218   1.408       .  A
C1217      H1227   1.084       .  S
C1218      C1219   1.408       .  A
C1219      H1228   1.084       .  S
C1220      C1221   1.406       .  A
C1220      H1229   1.084       .  S
C1221      C1222   1.406       .  A
C1222      H1230   1.084       .  S
C1231      C1232   1.400       .  A
C1231      C1236   1.404       .  A
C1231      H1247   1.083       .  S
C1232      C1233   1.404       .  A
C1232      H1248   1.084       .  S
C1233      C1243   1.405       .  A
C1233      C1234   1.412       .  A
C1234      C1240   1.410       .  A
C1234      C1235   1.411       .  A
C1235      C1237   1.412       .  A
C1235      C1236   1.412       .  A
C1236      C1244   1.404       .  A
C1237      C1246   1.401       .  A
C1237      C1238   1.403       .  A
C1238      C1239   1.398       .  A
C1238      H1249   1.084       .  S
C1239      C1240   1.403       .  A
C1239      H1250   1.084       .  S
C1240      C1241   1.401       .  A
C1241      C1242   1.408       .  A
C1241      H1251   1.084       .  S
C1242      C1243   1.407       .  A
C1243      H1252   1.084       .  S
C1244      C1245   1.405       .  A
C1244      H1253   1.084       .  S
C1245      C1246   1.404       .  A
C1246      H1254   1.085       .  S
C1255      C1256   1.396       .  A
C1255      C1260   1.402       .  A
C1255      H1271   1.084       .  S
C1256      C1257   1.403       .  A
C1256      H1272   1.084       .  S
C1257      C1267   1.398       .  A
C1257      C1258   1.410       .  A
C1258      C1264   1.413       .  A
C1258      C1259   1.411       .  A
C1259      C1261   1.412       .  A
C1259      C1260   1.412       .  A
C1260      C1268   1.399       .  A
C1261      C1270   1.405       .  A
C1261      C1262   1.404       .  A
C1262      C1263   1.401       .  A
C1262      H1273   1.083       .  S
C1263      C1264   1.404       .  A
C1263      H1274   1.083       .  S
C1264      C1265   1.406       .  A
C1265      C1266   1.407       .  A
C1265      H1275   1.084       .  S
C1266      C1267   1.406       .  A
C1267      H1276   1.084       .  S
C1268      C1269   1.403       .  A
C1268      H1277   1.085       .  S
C1269      C1270   1.406       .  A
C1270      H1278   1.084       .  S
C1279      C1280   1.399       .  A
C1279      C1284   1.404       .  A
C1279      H1295   1.084       .  S
C1280      C1281   1.404       .  A
C1280      H1296   1.084       .  S
C1281      C1291   1.403       .  A
C1281      C1282   1.412       .  A
C1282      C1288   1.411       .  A
C1282      C1283   1.410       .  A
C1283      C1285   1.411       .  A
C1283      C1284   1.411       .  A
C1284      C1292   1.403       .  A
C1285      C1294   1.400       .  A
C1285      C1286   1.403       .  A
C1286      C1287   1.397       .  A
C1286      H1297   1.084       .  S
C1287      C1288   1.402       .  A
C1287      H1298   1.084       .  S
C1288      C1289   1.400       .  A
C1289      C1290   1.404       .  A
C1289      H1299   1.084       .  S
C1290      C1291   1.406       .  A
C1291      H1300   1.084       .  S
C1292      C1293   1.409       .  A
C1292      H1301   1.084       .  S
C1293      C1294   1.407       .  A
C1294      H1302   1.084       .  S
C1303      C1304   1.399       .  A
C1303      C1308   1.404       .  A
C1303      H1319   1.084       .  S
C1304      C1305   1.403       .  A
C1304      H1320   1.083       .  S
C1305      C1315   1.403       .  A
C1305      C1306   1.412       .  A
C1306      C1312   1.411       .  A
C1306      C1307   1.409       .  A
C1307      C1309   1.411       .  A
C1307      C1308   1.412       .  A
C1308      C1316   1.403       .  A
C1309      C1318   1.399       .  A
C1309      C1310   1.403       .  A
C1310      C1311   1.396       .  A
C1310      H1321   1.084       .  S
C1311      C1312   1.402       .  A
C1311      H1322   1.084       .  S
C1312      C1313   1.398       .  A
C1313      C1314   1.403       .  A
C1313      H1323   1.085       .  S
C1314      C1315   1.404       .  A
C1315      H1324   1.084       .  S
C1316      C1317   1.406       .  A
C1316      H1325   1.084       .  S
C1317      C1318   1.406       .  A
C1318      H1326   1.084       .  S
C1327      C1328   1.401       .  A
C1327      C1332   1.404       .  A
C1327      H1343   1.084       .  S
C1328      C1329   1.405       .  A
C1328      H1344   1.083       .  S
C1329      C1339   1.406       .  A
C1329      C1330   1.412       .  A
C1330      C1336   1.412       .  A
C1330      C1331   1.411       .  A
C1331      C1333   1.411       .  A
C1331      C1332   1.412       .  A
C1332      C1340   1.406       .  A
C1333      C1342   1.399       .  A
C1333      C1334   1.402       .  A
C1334      C1335   1.397       .  A
C1334      H1345   1.084       .  S
C1335      C1336   1.402       .  A
C1335      H1346   1.084       .  S
C1336      C1337   1.400       .  A
C1337      C1338   1.403       .  A
C1337      H1347   1.085       .  S
C1338      C1339   1.407       .  A
C1339      H1348   1.084       .  S
C1340      C1341   1.407       .  A
C1340      H1349   1.084       .  S
C1341      C1342   1.405       .  A
C1342      H1350   1.084       .  S
C1351      N1352   1.358       .  A
C1351      N1356   1.356       .  A
C1351      C1743   1.482       .  S
N1352      C1353   1.358       .  A
C1353      N1354   1.358       .  A
C1353      C1791   1.477       .  S
N1354      C1355   1.359       .  A
C1355      N1356   1.358       .  A
C1355      C1767   1.475       .  S
C1357      N1358   1.355       .  A
C1357      N1362   1.357       .  A
C1357      C1668   1.482       .  S
N1358      C1359   1.357       .  A
C1359      N1360   1.360       .  A
C1359      C1716   1.478       .  S
N1360      C1361   1.362       .  A
C1361      N1362   1.360       .  A
C1361      C1692   1.483       .  S
C1363      N1364   1.358       .  A
C1363      N1368   1.361       .  A
C1363      C1647   1.485       .  S
N1364      C1365   1.357       .  A
C1365      N1366   1.358       .  A
C1365      C1599   1.482       .  S
N1366      C1367   1.358       .  A
C1367      N1368   1.360       .  A
C1367      C1623   1.485       .  S
C1369      N1370   1.356       .  A
C1369      N1374   1.360       .  A
C1369      C1572   1.482       .  S
N1370      C1371   1.355       .  A
C1371      N1372   1.358       .  A
C1371      C1548   1.475       .  S
N1372      C1373   1.361       .  A
C1373      N1374   1.361       .  A
C1373      C1527   1.485       .  S
N1375      N1376   1.321       .  A
N1375     Mn1404   2.211       .  S
N1376      C1383   1.354   1_556  A
N1377      N1379   1.315       .  A
N1377      N1378   1.320       .  A
N1378      C1384   1.352       .  A
N1379      N1380   1.319       .  A
N1380      C1384   1.353       .  A
N1381      N1382   1.322       .  A
N1381     Mn1393   2.209       .  S
C1383      C1500   1.482       .  S
C1384      C1740   1.474       .  S
N1385      N1391   1.316       .  A
N1385      N1386   1.321       .  A
N1385     Mn1415   2.203       .  S
N1386      C1394   1.353       .  A
N1387      N1388   1.322       .  A
N1387      N1389   1.316       .  A
N1387     Mn1393   2.203       .  S
N1388      C1395   1.353       .  A
N1389      N1390   1.320       .  A
N1389     Mn1415   2.205       .  S
N1390      C1395   1.353       .  A
N1391      N1392   1.319       .  A
N1391     Mn1393   2.197       .  S
N1392      C1394   1.351       .  A
C1394      C1596   1.467       .  S
C1395      C1788   1.476       .  S
N1396      N1397   1.322       .  A
N1396      N1402   1.317       .  A
N1396     Mn1404   2.212       .  S
N1397      C1405   1.354       .  A
N1398      N1400   1.315       .  A
N1398      N1399   1.316       .  A
N1398     Mn1416   2.182       .  S
N1399      C1406   1.349       .  A
N1400      N1401   1.322       .  A
N1400     Mn1404   2.206       .  S
N1401      C1406   1.355       .  A
N1402      N1403   1.321       .  A
N1402     Mn1416   2.205       .  S
N1403      C1405   1.352       .  A
Mn1404    Cl1417   2.553       .  S
C1405      C1620   1.474       .  S
C1406      C1764   1.468       .  S
N1407      N1408   1.320       .  A
N1407      N1413   1.315       .  A
N1408      C1418   1.353       .  A
N1409      N1410   1.320       .  A
N1409     Mn1416   2.196       .  S
N1410      C1419   1.353   1_655  A
N1411      N1412   1.321       .  A
N1411     Mn1415   2.210       .  S
N1413      N1414   1.320       .  A
N1414      C1418   1.353       .  A
Mn1416    Cl1417   2.540       .  S
C1418      C1644   1.478       .  S
C1419      C1479   1.479       .  S
N1420      N1421   1.320       .  A
N1420     Mn1449   2.195       .  S
N1421      C1428   1.353   1_565  A
N1422      N1424   1.314       .  A
N1422      N1423   1.320       .  A
N1423      C1429   1.354       .  A
N1424      N1425   1.319       .  A
N1425      C1429   1.353       .  A
N1426      N1427   1.321       .  A
N1426     Mn1438   2.215       .  S
C1428      C1476   1.480   1_545  S
C1429      C1671   1.476       .  S
N1430      N1436   1.317       .  A
N1430      N1431   1.320       .  A
N1430     Mn1460   2.203       .  S
N1431      C1439   1.352       .  A
N1432      N1433   1.322       .  A
N1432      N1434   1.316       .  A
N1432     Mn1438   2.200       .  S
N1433      C1440   1.353       .  A
N1434      N1435   1.318       .  A
N1434     Mn1460   2.201       .  S
N1435      C1440   1.352       .  A
N1436      N1437   1.321       .  A
N1436     Mn1438   2.207       .  S
N1437      C1439   1.352       .  A
C1439      C1524   1.469       .  S
C1440      C1719   1.473       .  S
N1441      N1442   1.315       .  A
N1441      N1447   1.316       .  A
N1441     Mn1449   2.181       .  S
N1442      C1450   1.348       .  A
N1443      N1445   1.315       .  A
N1443      N1444   1.318       .  A
N1443     Mn1461   2.193       .  S
N1444      C1451   1.350       .  A
N1445      N1446   1.322       .  A
N1445     Mn1449   2.206       .  S
N1446      C1451   1.355       .  A
N1447      N1448   1.324       .  A
N1447     Mn1461   2.216       .  S
N1448      C1450   1.357       .  A
Mn1449    Cl1462   2.546   1_655  S
C1450      C1551   1.473       .  S
C1451      C1695   1.472       .  S
N1452      N1453   1.320       .  A
N1452      N1458   1.315       .  A
N1453      C1463   1.353       .  A
N1454      N1455   1.321       .  A
N1454     Mn1461   2.205       .  S
N1455      C1464   1.353   1_655  A
N1456      N1457   1.323       .  A
N1456     Mn1460   2.213       .  S
N1458      N1459   1.320       .  A
N1459      C1463   1.354       .  A
Mn1461    Cl1462   2.545   1_655  S
C1463      C1575   1.478       .  S
C1464      C1503   1.483       .  S
C1465      C1466   1.400       .  A
C1465      C1470   1.404       .  A
C1465      H1481   1.084       .  S
C1466      C1467   1.404       .  A
C1466      H1482   1.084       .  S
C1467      C1477   1.405       .  A
C1467      C1468   1.411       .  A
C1468      C1469   1.412       .  A
C1469      C1470   1.412       .  A
C1470      C1478   1.405       .  A
C1471      C1480   1.401       .  A
C1471      C1472   1.403       .  A
C1472      C1473   1.398       .  A
C1472      H1483   1.084       .  S
C1473      C1474   1.403       .  A
C1473      H1484   1.083       .  S
C1474      C1475   1.402       .  A
C1475      H1485   1.084       .  S
C1476      C1477   1.408       .  A
C1477      H1486   1.084       .  S
C1478      C1479   1.408   1_655  A
C1478      H1487   1.084       .  S
C1480      H1488   1.084       .  S
C1489      C1490   1.399       .  A
C1489      C1494   1.404       .  A
C1489      H1505   1.083       .  S
C1490      C1491   1.404       .  A
C1490      H1506   1.084       .  S
C1491      C1501   1.404       .  A
C1491      C1492   1.411   1_655  A
C1492      C1493   1.414       .  A
C1493      C1494   1.412   1_455  A
C1494      C1502   1.404       .  A
C1495      C1504   1.406       .  A
C1495      C1496   1.404       .  A
C1496      C1497   1.401       .  A
C1496      H1507   1.084       .  S
C1497      C1498   1.404       .  A
C1497      H1508   1.084       .  S
C1498      C1499   1.406       .  A
C1499      H1509   1.084       .  S
C1500      C1501   1.407       .  A
C1501      H1510   1.084       .  S
C1502      C1503   1.407   1_655  A
C1502      H1511   1.084       .  S
C1504      H1512   1.084       .  S
C1513      C1514   1.398       .  A
C1513      C1518   1.403       .  A
C1513      H1529   1.084       .  S
C1514      C1515   1.403       .  A
C1514      H1530   1.084       .  S
C1515      C1525   1.401       .  A
C1515      C1516   1.412       .  A
C1516      C1522   1.413       .  A
C1516      C1517   1.412       .  A
C1517      C1519   1.411       .  A
C1517      C1518   1.411       .  A
C1518      C1526   1.402       .  A
C1519      C1528   1.404       .  A
C1519      C1520   1.404       .  A
C1520      C1521   1.400       .  A
C1520      H1531   1.084       .  S
C1521      C1522   1.403       .  A
C1521      H1532   1.083       .  S
C1522      C1523   1.405       .  A
C1523      C1524   1.403       .  A
C1523      H1533   1.084       .  S
C1524      C1525   1.403       .  A
C1525      H1534   1.085       .  S
C1526      C1527   1.408       .  A
C1526      H1535   1.084       .  S
C1527      C1528   1.409       .  A
C1528      H1536   1.084       .  S
C1537      C1538   1.399       .  A
C1537      C1542   1.403       .  A
C1537      H1553   1.083       .  S
C1538      C1539   1.403       .  A
C1538      H1554   1.084       .  S
C1539      C1549   1.403       .  A
C1539      C1540   1.412       .  A
C1540      C1546   1.411       .  A
C1540      C1541   1.410       .  A
C1541      C1543   1.411       .  A
C1541      C1542   1.413       .  A
C1542      C1550   1.404       .  A
C1543      C1552   1.399       .  A
C1543      C1544   1.403       .  A
C1544      C1545   1.398       .  A
C1544      H1555   1.084       .  S
C1545      C1546   1.403       .  A
C1545      H1556   1.084       .  S
C1546      C1547   1.400       .  A
C1547      C1548   1.406       .  A
C1547      H1557   1.085       .  S
C1548      C1549   1.405       .  A
C1549      H1558   1.084       .  S
C1550      C1551   1.404       .  A
C1550      H1559   1.084       .  S
C1551      C1552   1.406       .  A
C1552      H1560   1.085       .  S
C1561      C1562   1.399       .  A
C1561      C1566   1.403       .  A
C1561      H1577   1.083       .  S
C1562      C1563   1.403       .  A
C1562      H1578   1.084       .  S
C1563      C1573   1.403       .  A
C1563      C1564   1.412       .  A
C1564      C1570   1.410       .  A
C1564      C1565   1.411       .  A
C1565      C1567   1.412       .  A
C1565      C1566   1.411       .  A
C1566      C1574   1.402       .  A
C1567      C1576   1.402       .  A
C1567      C1568   1.403       .  A
C1568      C1569   1.398       .  A
C1568      H1579   1.084       .  S
C1569      C1570   1.404       .  A
C1569      H1580   1.084       .  S
C1570      C1571   1.401       .  A
C1571      C1572   1.409       .  A
C1571      H1581   1.084       .  S
C1572      C1573   1.407       .  A
C1573      H1582   1.084       .  S
C1574      C1575   1.406       .  A
C1574      H1583   1.084       .  S
C1575      C1576   1.406       .  A
C1576      H1584   1.084       .  S
C1585      C1586   1.399       .  A
C1585      C1590   1.404       .  A
C1585      H1601   1.084       .  S
C1586      C1587   1.403       .  A
C1586      H1602   1.084       .  S
C1587      C1597   1.403       .  A
C1587      C1588   1.412       .  A
C1588      C1594   1.412       .  A
C1588      C1589   1.410       .  A
C1589      C1591   1.411       .  A
C1589      C1590   1.411       .  A
C1590      C1598   1.403       .  A
C1591      C1600   1.401       .  A
C1591      C1592   1.403       .  A
C1592      C1593   1.398       .  A
C1592      H1603   1.084       .  S
C1593      C1594   1.403       .  A
C1593      H1604   1.084       .  S
C1594      C1595   1.401       .  A
C1595      C1596   1.403       .  A
C1595      H1605   1.085       .  S
C1596      C1597   1.403       .  A
C1597      H1606   1.085       .  S
C1598      C1599   1.409       .  A
C1598      H1607   1.084       .  S
C1599      C1600   1.407       .  A
C1600      H1608   1.084       .  S
C1609      C1610   1.399       .  A
C1609      C1614   1.404       .  A
C1609      H1625   1.083       .  S
C1610      C1611   1.403       .  A
C1610      H1626   1.083       .  S
C1611      C1621   1.404       .  A
C1611      C1612   1.412       .  A
C1612      C1618   1.412       .  A
C1612      C1613   1.413       .  A
C1613      C1615   1.411       .  A
C1613      C1614   1.411       .  A
C1614      C1622   1.404       .  A
C1615      C1624   1.404       .  A
C1615      C1616   1.404       .  A
C1616      C1617   1.400       .  A
C1616      H1627   1.084       .  S
C1617      C1618   1.404       .  A
C1617      H1628   1.084       .  S
C1618      C1619   1.404       .  A
C1619      C1620   1.406       .  A
C1619      H1629   1.084       .  S
C1620      C1621   1.403       .  A
C1621      H1630   1.084       .  S
C1622      C1623   1.408       .  A
C1622      H1631   1.084       .  S
C1623      C1624   1.409       .  A
C1624      H1632   1.084       .  S
C1633      C1634   1.399       .  A
C1633      C1638   1.404       .  A
C1633      H1649   1.084       .  S
C1634      C1635   1.403       .  A
C1634      H1650   1.084       .  S
C1635      C1645   1.403       .  A
C1635      C1636   1.412       .  A
C1636      C1642   1.411       .  A
C1636      C1637   1.412       .  A
C1637      C1639   1.411       .  A
C1637      C1638   1.410       .  A
C1638      C1646   1.402       .  A
C1639      C1648   1.403       .  A
C1639      C1640   1.403       .  A
C1640      C1641   1.398       .  A
C1640      H1651   1.084       .  S
C1641      C1642   1.403       .  A
C1641      H1652   1.084       .  S
C1642      C1643   1.402       .  A
C1643      C1644   1.406       .  A
C1643      H1653   1.084       .  S
C1644      C1645   1.406       .  A
C1645      H1654   1.084       .  S
C1646      C1647   1.409       .  A
C1646      H1655   1.084       .  S
C1647      C1648   1.408       .  A
C1648      H1656   1.084       .  S
C1657      C1658   1.399       .  A
C1657      C1662   1.403       .  A
C1657      H1673   1.084       .  S
C1658      C1659   1.403       .  A
C1658      H1674   1.084       .  S
C1659      C1669   1.403       .  A
C1659      C1660   1.411       .  A
C1660      C1666   1.411       .  A
C1660      C1661   1.411       .  A
C1661      C1663   1.411       .  A
C1661      C1662   1.412       .  A
C1662      C1670   1.403       .  A
C1663      C1672   1.401       .  A
C1663      C1664   1.403       .  A
C1664      C1665   1.398       .  A
C1664      H1675   1.084       .  S
C1665      C1666   1.403       .  A
C1665      H1676   1.084       .  S
C1666      C1667   1.401       .  A
C1667      C1668   1.408       .  A
C1667      H1677   1.084       .  S
C1668      C1669   1.408       .  A
C1669      H1678   1.084       .  S
C1670      C1671   1.406       .  A
C1670      H1679   1.084       .  S
C1671      C1672   1.406       .  A
C1672      H1680   1.084       .  S
C1681      C1682   1.400       .  A
C1681      C1686   1.404       .  A
C1681      H1697   1.083       .  S
C1682      C1683   1.404       .  A
C1682      H1698   1.084       .  S
C1683      C1693   1.405       .  A
C1683      C1684   1.412       .  A
C1684      C1690   1.410       .  A
C1684      C1685   1.411       .  A
C1685      C1687   1.412       .  A
C1685      C1686   1.412       .  A
C1686      C1694   1.404       .  A
C1687      C1696   1.401       .  A
C1687      C1688   1.403       .  A
C1688      C1689   1.398       .  A
C1688      H1699   1.084       .  S
C1689      C1690   1.403       .  A
C1689      H1700   1.084       .  S
C1690      C1691   1.401       .  A
C1691      C1692   1.408       .  A
C1691      H1701   1.084       .  S
C1692      C1693   1.407       .  A
C1693      H1702   1.084       .  S
C1694      C1695   1.405       .  A
C1694      H1703   1.084       .  S
C1695      C1696   1.404       .  A
C1696      H1704   1.085       .  S
C1705      C1706   1.396       .  A
C1705      C1710   1.402       .  A
C1705      H1721   1.084       .  S
C1706      C1707   1.403       .  A
C1706      H1722   1.083       .  S
C1707      C1717   1.398       .  A
C1707      C1708   1.410       .  A
C1708      C1714   1.413       .  A
C1708      C1709   1.411       .  A
C1709      C1711   1.412       .  A
C1709      C1710   1.412       .  A
C1710      C1718   1.399       .  A
C1711      C1720   1.405       .  A
C1711      C1712   1.404       .  A
C1712      C1713   1.401       .  A
C1712      H1723   1.083       .  S
C1713      C1714   1.404       .  A
C1713      H1724   1.084       .  S
C1714      C1715   1.406       .  A
C1715      C1716   1.407       .  A
C1715      H1725   1.084       .  S
C1716      C1717   1.406       .  A
C1717      H1726   1.084       .  S
C1718      C1719   1.403       .  A
C1718      H1727   1.085       .  S
C1719      C1720   1.406       .  A
C1720      H1728   1.084       .  S
C1729      C1730   1.399       .  A
C1729      C1734   1.404       .  A
C1729      H1745   1.084       .  S
C1730      C1731   1.404       .  A
C1730      H1746   1.084       .  S
C1731      C1741   1.403       .  A
C1731      C1732   1.412       .  A
C1732      C1738   1.411       .  A
C1732      C1733   1.410       .  A
C1733      C1735   1.411       .  A
C1733      C1734   1.411       .  A
C1734      C1742   1.403       .  A
C1735      C1744   1.400       .  A
C1735      C1736   1.403       .  A
C1736      C1737   1.397       .  A
C1736      H1747   1.084       .  S
C1737      C1738   1.402       .  A
C1737      H1748   1.084       .  S
C1738      C1739   1.400       .  A
C1739      C1740   1.404       .  A
C1739      H1749   1.084       .  S
C1740      C1741   1.406       .  A
C1741      H1750   1.084       .  S
C1742      C1743   1.409       .  A
C1742      H1751   1.084       .  S
C1743      C1744   1.407       .  A
C1744      H1752   1.084       .  S
C1753      C1754   1.399       .  A
C1753      C1758   1.404       .  A
C1753      H1769   1.084       .  S
C1754      C1755   1.403       .  A
C1754      H1770   1.084       .  S
C1755      C1765   1.403       .  A
C1755      C1756   1.412       .  A
C1756      C1762   1.411       .  A
C1756      C1757   1.409       .  A
C1757      C1759   1.411       .  A
C1757      C1758   1.412       .  A
C1758      C1766   1.403       .  A
C1759      C1768   1.399       .  A
C1759      C1760   1.403       .  A
C1760      C1761   1.396       .  A
C1760      H1771   1.084       .  S
C1761      C1762   1.402       .  A
C1761      H1772   1.084       .  S
C1762      C1763   1.398       .  A
C1763      C1764   1.403       .  A
C1763      H1773   1.085       .  S
C1764      C1765   1.404       .  A
C1765      H1774   1.084       .  S
C1766      C1767   1.406       .  A
C1766      H1775   1.084       .  S
C1767      C1768   1.406       .  A
C1768      H1776   1.084       .  S
C1777      C1778   1.401       .  A
C1777      C1782   1.404       .  A
C1777      H1793   1.084       .  S
C1778      C1779   1.405       .  A
C1778      H1794   1.083       .  S
C1779      C1789   1.406       .  A
C1779      C1780   1.412       .  A
C1780      C1786   1.412       .  A
C1780      C1781   1.411       .  A
C1781      C1783   1.411       .  A
C1781      C1782   1.412       .  A
C1782      C1790   1.406       .  A
C1783      C1792   1.399       .  A
C1783      C1784   1.402       .  A
C1784      C1785   1.397       .  A
C1784      H1795   1.084       .  S
C1785      C1786   1.402       .  A
C1785      H1796   1.084       .  S
C1786      C1787   1.400       .  A
C1787      C1788   1.403       .  A
C1787      H1797   1.085       .  S
C1788      C1789   1.407       .  A
C1789      H1798   1.084       .  S
C1790      C1791   1.407       .  A
C1790      H1799   1.084       .  S
C1791      C1792   1.405       .  A
C1792      H1800   1.084       .  S
