geometry optimzed in LAMMPS
_audit_creation_date              2020-12-01 
_audit_creation_method            'lammps2cif' 
_symmetry_space_group_name_H-M    'P1' 
_symmetry_Int_Tables_number       1 
_symmetry_cell_setting            triclinic 
loop_ 
_symmetry_equiv_pos_as_xyz 
  x,y,z 
_cell_length_a                    26.64426419 
_cell_length_b                    26.835438516573635 
_cell_length_c                    79.84870460488678 
_cell_angle_alpha                 90.09565541324451 
_cell_angle_beta                  89.98119242129712 
_cell_angle_gamma                 90.21902636774456 
loop_ 
_atom_site_label 
_atom_site_type_symbol 
_atom_site_fract_x 
_atom_site_fract_y 
_atom_site_fract_z 
_atom_site_charge 
C1          C  0.49731220  0.07874745  0.24297570     0.86400
C2          C  0.45021766  0.06821561  0.25387178    -0.53900
C3          C  0.45111084  0.02385658  0.26251513     0.09300
C4          C  0.49935538  0.99379152  0.25914639     0.20300
C5          C  0.54122060  0.07373387  0.25531594    -0.54600
C6          C  0.54230233  0.02963869  0.26381349     0.09400
C7          C  0.50026234  0.03263414  0.23161730    -0.54100
C8          C  0.50201040  0.98846257  0.23992815     0.10000
H9          H  0.41815663  0.09256763  0.25470332     0.14500
H10         H  0.50217247  0.95820919  0.26601271     0.00200
H11         H  0.56958399  0.10248764  0.25697331     0.14800
H12         H  0.50040657  0.03469119  0.21803057     0.14600
C13         C  0.95227349  0.55255322  0.99206814     0.02200
C14         C  0.95213591  0.55013256  0.00973077     0.02100
C15         C  0.99790406  0.55170736  0.01842190    -0.18400
C16         C  0.04386198  0.55331478  0.00986083     0.02200
C17         C  0.04392455  0.55582404  0.99216494     0.02100
C18         C  0.99813022  0.55540619  0.98352649    -0.18400
H19         H  0.99822641  0.55614836  0.96994813     0.04200
H20         H  0.99778631  0.55018851  0.03198971     0.04200
C21         C  0.50076291  0.07375324  0.76035769     0.86400
C22         C  0.54537090  0.06693597  0.74820277    -0.53900
C23         C  0.54587110  0.02214420  0.74004715     0.09300
C24         C  0.50057355  0.98857617  0.74423043     0.20300
C25         C  0.45464110  0.06558365  0.74918500    -0.54600
C26         C  0.45443683  0.02124387  0.74083776     0.09400
C27         C  0.50338116  0.02753412  0.77168943    -0.54100
C28         C  0.50261452  0.98294684  0.76340412     0.10000
H29         H  0.57453937  0.09409420  0.74584789     0.14500
H30         H  0.49957618  0.95270577  0.73730049     0.00200
H31         H  0.42471969  0.09270076  0.74790108     0.14800
H32         H  0.50542182  0.03003519  0.78525347     0.14600
C33         C  0.99426110  0.41895495  0.74036590     0.86400
C34         C  0.04056960  0.42487746  0.75170553    -0.53900
C35         C  0.04009095  0.46607702  0.76186014     0.09300
C36         C  0.99285024  0.49844122  0.75957030     0.20300
C37         C  0.94903482  0.42137038  0.75211891    -0.54600
C38         C  0.94801167  0.46228611  0.76218289     0.09400
C39         C  0.99256746  0.46906196  0.73081581    -0.54100
C40         C  0.99276417  0.51079619  0.74071668     0.10000
H41         H  0.07185873  0.39905575  0.75139201     0.14500
H42         H  0.99264807  0.53181037  0.76771192     0.00200
H43         H  0.91966015  0.39316816  0.75232536     0.14800
H44         H  0.99372737  0.47285297  0.71733177     0.14600
C45         C  0.50331428  0.98045036  0.99069089     0.02200
C46         C  0.50733359  0.97802062  0.00832696     0.02100
C47         C  0.51012924  0.02248662  0.01761013    -0.18400
C48         C  0.50675443  0.06950175  0.00992942     0.02200
C49         C  0.50345487  0.07170913  0.99219694     0.02100
C50         C  0.50183636  0.02719181  0.98289520    -0.18400
H51         H  0.49835177  0.02894474  0.96937907     0.04200
H52         H  0.51441194  0.02030303  0.03108454     0.04200
N53         N  0.46917283  0.63697260  0.89238767    -0.06200
N54         N  0.45026807  0.67037292  0.90278472    -0.58300
N55         N  0.52555708  0.62706128  0.85548111    -0.05900
N56         N  0.54526102  0.65700528  0.84411713    -0.60500
N57         N  0.47631060  0.62691843  0.85426689    -0.05500
N58         N  0.46175330  0.65671142  0.84208003    -0.58300
N59         N  0.51839517  0.63581305  0.89371509    -0.05200
N60         N  0.53390916  0.66812721  0.90509793    -0.60800
C61         C  0.49107111  0.68947286  0.91063890     0.96000
C62         C  0.50514439  0.67518395  0.83575417     0.95700
N63         N  0.60685832  0.49415260  0.86067057    -0.06400
N64         N  0.63783539  0.47384696  0.84974556    -0.58900
N65         N  0.60145300  0.55200170  0.89768492    -0.04500
N66         N  0.63254504  0.57117564  0.90889861    -0.60200
N67         N  0.60077672  0.50305496  0.89881876    -0.06400
N68         N  0.63154870  0.48799511  0.91071301    -0.59200
N69         N  0.60782692  0.54298298  0.85937173    -0.04200
N70         N  0.63958080  0.55677737  0.84753798    -0.60300
Mn71       Mn  0.56427387  0.59039529  0.87658744     1.18400
C72         C  0.65807407  0.51329452  0.84158589     0.98000
C73         C  0.65048285  0.53082544  0.91704869     0.98700
N74         N  0.39057804  0.54397124  0.85475780    -0.06500
N75         N  0.36085096  0.55753917  0.84232182    -0.62800
N76         N  0.38451561  0.50538701  0.89466022    -0.05300
N77         N  0.35449333  0.49194340  0.90703267    -0.63400
N78         N  0.38496082  0.55416766  0.89307497    -0.06000
N79         N  0.35518891  0.57488637  0.90427429    -0.63000
N80         N  0.39008145  0.49521377  0.85634415    -0.04900
N81         N  0.36024069  0.47480874  0.84505415    -0.63700
Mn82       Mn  0.42924055  0.59140734  0.87349498     1.10700
C83         C  0.34253075  0.51388660  0.83621257     0.99300
C84         C  0.33679735  0.53573237  0.91300893     0.99300
N85         N  0.51516187  0.42057867  0.89940371    -0.06000
N86         N  0.52941447  0.39109835  0.91174310    -0.61300
N87         N  0.47283716  0.41268724  0.86002893    -0.05300
N88         N  0.45736481  0.38181009  0.84820541    -0.58100
N89         N  0.52208208  0.41211664  0.86110822    -0.06600
N90         N  0.54111180  0.38070840  0.85008998    -0.60900
N91         N  0.46592278  0.42113637  0.89830057    -0.05600
N92         N  0.44578931  0.39209314  0.90982345    -0.58100
Mn93       Mn  0.56211709  0.45655133  0.88009046     1.20200
Mn94       Mn  0.42735351  0.45770579  0.87735516     1.10100
Cl95       Cl  0.49577774  0.52405950  0.87689020    -0.86100
C96         C  0.48569605  0.37358897  0.91816459     0.96300
C97         C  0.50034691  0.36196512  0.84215207     0.96100
N98         N  0.38918119  0.50205779  0.14278699    -0.06200
N99         N  0.35723139  0.48247603  0.15359771    -0.58300
N100        N  0.39338554  0.55671513  0.10525042    -0.05900
N101        N  0.36385346  0.57519317  0.09354526    -0.60500
N102        N  0.39361367  0.50770099  0.10446929    -0.05500
N103        N  0.36400910  0.49197088  0.09229043    -0.58300
N104        N  0.38816230  0.55106704  0.14362326    -0.05200
N105        N  0.35508670  0.56565097  0.15496040    -0.60800
C106        C  0.33613974  0.52245660  0.16111506     0.96000
C107        C  0.34622031  0.53445600  0.08542000     0.95700
N108        N  0.52565773  0.64181145  0.10843682    -0.06400
N109        N  0.54436461  0.67327319  0.09734204    -0.58900
N110        N  0.47251901  0.63632279  0.14612458    -0.04500
N111        N  0.45468852  0.66738875  0.15752666    -0.60200
N112        N  0.52188965  0.63545001  0.14681857    -0.06400
N113        N  0.53849087  0.66529751  0.15877138    -0.59200
N114        N  0.47634767  0.64114244  0.10761404    -0.04200
N115        N  0.46053755  0.67193048  0.09584134    -0.60300
Mn116      Mn  0.43153189  0.59728986  0.12569586     1.18400
C117        C  0.50338896  0.69182241  0.08956726     0.98000
C118        C  0.49624091  0.68450306  0.16551346     0.98700
N119        N  0.47778544  0.42411458  0.10399476    -0.06500
N120        N  0.46260415  0.39323258  0.09206103    -0.62800
N121        N  0.52331930  0.42026460  0.14315950    -0.05300
N122        N  0.53954090  0.38984591  0.15496873    -0.63400
N123        N  0.47397868  0.41972583  0.14256616    -0.06000
N124        N  0.45575021  0.38890556  0.15394258    -0.63000
N125        N  0.52707434  0.42503078  0.10467234    -0.04900
N126        N  0.54616405  0.39494723  0.09326577    -0.63700
Mn127      Mn  0.43268118  0.46249522  0.12340643     1.10700
C128        C  0.50579612  0.37539067  0.08533386     0.99300
C129        C  0.49696896  0.37033035  0.16159777     0.99300
N130        N  0.60648581  0.55287985  0.14611524    -0.06000
N131        N  0.63754112  0.56836581  0.15793387    -0.61300
N132        N  0.60943440  0.51007289  0.10676367    -0.05300
N133        N  0.64019608  0.49560121  0.09473136    -0.58100
N134        N  0.60893830  0.55899568  0.10780641    -0.06600
N135        N  0.63926368  0.57873352  0.09656036    -0.60900
N136        N  0.60686821  0.50396954  0.14517966    -0.05600
N137        N  0.63806650  0.48538185  0.15636700    -0.58100
Mn138      Mn  0.56655185  0.59808325  0.12737536     1.20200
Mn139      Mn  0.56758309  0.46394213  0.12492903     1.10100
Cl140      Cl  0.49951773  0.53046468  0.12538114    -0.86100
C141        C  0.65692512  0.52592596  0.16434510     0.96300
C142        C  0.65865130  0.53889564  0.08850421     0.96100
N143        N  0.97355158  0.07061224  0.64400283    -0.06200
N144        N  0.95534911  0.09904972  0.65605705    -0.58300
N145        N  0.02478283  0.06926814  0.60570048    -0.05900
N146        N  0.04218012  0.10031802  0.59422827    -0.60500
N147        N  0.97541989  0.06862472  0.60550538    -0.05500
N148        N  0.95828872  0.09961300  0.59402341    -0.58300
N149        N  0.02289264  0.07130254  0.64430744    -0.05200
N150        N  0.03914744  0.10018611  0.65657158    -0.60800
C151        C  0.99662562  0.11704673  0.66393048     0.96000
C152        C  0.00031318  0.11857220  0.58689401     0.95700
N153        N  0.10924948  0.93794696  0.60710240    -0.06400
N154        N  0.13950505  0.92045197  0.59541152    -0.58900
N155        N  0.10860688  0.99032408  0.64513533    -0.04500
N156        N  0.13964072  0.00892671  0.65643893    -0.60200
N157        N  0.10951029  0.94137218  0.64552396    -0.06400
N158        N  0.14112572  0.92582574  0.65710585    -0.59200
N159        N  0.10905970  0.98699415  0.60683823    -0.04200
N160        N  0.13936152  0.00385656  0.59505478    -0.60300
Mn161      Mn  0.06723789  0.03047082  0.62549623     1.18400
C162        C  0.15755397  0.96197651  0.58789606     0.98000
C163        C  0.15969201  0.96827730  0.66389499     0.98700
N164        N  0.89326113  0.98220973  0.60569416    -0.06500
N165        N  0.86345573  0.99706576  0.59346681    -0.62800
N166        N  0.89073887  0.93801287  0.64494740    -0.05300
N167        N  0.85717303  0.92242739  0.65599031    -0.63400
N168        N  0.89042588  0.98695317  0.64408209    -0.06000
N169        N  0.85702948  0.00546339  0.65454379    -0.63000
N170        N  0.89321572  0.93321336  0.60665484    -0.04900
N171        N  0.86321047  0.91386171  0.59519773    -0.63700
Mn172      Mn  0.93226197  0.02801505  0.62474653     1.10700
C173        C  0.84546223  0.95399688  0.58690533     0.99300
C174        C  0.83670287  0.96497849  0.66204060     0.99300
N175        N  0.02682766  0.85742789  0.64653016    -0.06000
N176        N  0.04490788  0.82967983  0.65873714    -0.61300
N177        N  0.97770903  0.85114887  0.60801766    -0.05300
N178        N  0.96101405  0.81919927  0.59667850    -0.58100
N179        N  0.02708334  0.85195343  0.60811274    -0.06600
N180        N  0.04494010  0.82023752  0.59694601    -0.60900
N181        N  0.97744057  0.85620798  0.64657067    -0.05600
N182        N  0.96104608  0.82724915  0.65879056    -0.58100
Mn183      Mn  0.06910250  0.89623774  0.62678362     1.20200
Mn184      Mn  0.93383717  0.89361132  0.62662650     1.10100
Cl185      Cl  0.00058234  0.96206171  0.62589329    -0.86100
C186        C  0.00354908  0.81143457  0.66642757     0.96300
C187        C  0.00334593  0.80008835  0.58988640     0.96100
N188        N  0.10222836  0.93729423  0.35598029    -0.06200
N189        N  0.13442365  0.92045060  0.34475133    -0.58300
N190        N  0.10738084  0.98574301  0.39435641    -0.05900
N191        N  0.13925290  0.00267303  0.40571280    -0.60500
N192        N  0.10733666  0.93668693  0.39417575    -0.05500
N193        N  0.13942382  0.91935472  0.40531742    -0.58300
N194        N  0.10167496  0.98634523  0.35595436    -0.05200
N195        N  0.13307289  0.00379642  0.34458823    -0.60800
C196        C  0.15293050  0.96236093  0.33764523     0.96000
C197        C  0.15864146  0.96087336  0.41257854     0.95700
N198        N  0.97557783  0.06927880  0.39713143    -0.06400
N199        N  0.96063922  0.09932901  0.40925956    -0.58900
N200        N  0.01797888  0.07019420  0.35753855    -0.04500
N201        N  0.03313688  0.10114960  0.34569868    -0.60200
N202        N  0.96873035  0.07048290  0.35864447    -0.06400
N203        N  0.94952576  0.10163126  0.34759107    -0.59200
N204        N  0.02481036  0.06979876  0.39596489    -0.04200
N205        N  0.04433375  0.10043145  0.40719844    -0.60300
Mn206      Mn  0.06382654  0.02887339  0.37588726     1.18400
C207        C  0.00394047  0.11810031  0.41557042     0.98000
C208        C  0.99003595  0.12060586  0.33954997     0.98700
N209        N  0.02332875  0.85283798  0.39523530    -0.06500
N210        N  0.04250798  0.82216140  0.40642951    -0.62800
N211        N  0.96773950  0.85404241  0.35768188    -0.05300
N212        N  0.94886602  0.82517859  0.34577430    -0.63400
N213        N  0.01707848  0.85470906  0.35679633    -0.06000
N214        N  0.03265143  0.82670531  0.34424107    -0.63000
N215        N  0.97405177  0.85312517  0.39628028    -0.04900
N216        N  0.95875152  0.82303765  0.40835099    -0.63700
Mn217      Mn  0.06329710  0.89439555  0.37552260     1.10700
C218        C  0.00188979  0.80438324  0.41467906     0.99300
C219        C  0.98983258  0.80888894  0.33733283     0.99300
N220        N  0.88490827  0.98713493  0.36006109    -0.06000
N221        N  0.85272526  0.00548513  0.34917767    -0.61300
N222        N  0.89126078  0.93653518  0.39814774    -0.05300
N223        N  0.86217502  0.91910635  0.41019451    -0.58100
N224        N  0.89161062  0.98558037  0.39833064    -0.06600
N225        N  0.86254085  0.00246392  0.41043922    -0.60900
N226        N  0.88368879  0.93809718  0.35980581    -0.05600
N227        N  0.85018704  0.92219911  0.34877748    -0.58100
Mn228      Mn  0.92932027  0.02895023  0.37858372     1.20200
Mn229      Mn  0.92812646  0.89433038  0.37796743     1.10100
Cl230      Cl  0.99612620  0.96162967  0.37696232    -0.86100
C231        C  0.83125872  0.96471915  0.34221516     0.96300
C232        C  0.84454475  0.96064069  0.41775111     0.96100
C233        C  0.00256040  0.50925658  0.50968464     0.02200
C234        C  0.00359016  0.50812782  0.49198416     0.02100
C235        C  0.00459228  0.46203097  0.48365634    -0.18400
C236        C  0.00467359  0.41687338  0.49252642     0.02200
C237        C  0.00307431  0.41792930  0.51025762     0.02100
C238        C  0.00254557  0.46412891  0.51856967    -0.18400
H239        H  0.00156217  0.46498851  0.53214348     0.04200
H240        H  0.00549771  0.46131641  0.47007771     0.04200
C241        C  0.54355698  0.94477421  0.51095766     0.02200
C242        C  0.54586646  0.94404338  0.49328116     0.02100
C243        C  0.50120906  0.94658851  0.48397064    -0.18400
C244        C  0.45418329  0.94861038  0.49185230     0.02200
C245        C  0.45207816  0.94945735  0.50956981     0.02100
C246        C  0.49676396  0.94747134  0.51886513    -0.18400
H247        H  0.49510980  0.94836386  0.53243155     0.04200
H248        H  0.50308129  0.94716077  0.47041002     0.04200
C249        C  0.99639383  0.41917101  0.26049052     0.86400
C250        C  0.94982770  0.42963731  0.24946480    -0.53900
C251        C  0.95256012  0.47286780  0.24054883     0.09300
C252        C  0.00146285  0.50224698  0.24321658     0.20300
C253        C  0.04064319  0.42171813  0.24817091    -0.54600
C254        C  0.04362906  0.46498047  0.23921803     0.09400
C255        C  0.00115525  0.46676400  0.27125205    -0.54100
C256        C  0.00424682  0.51010131  0.26226719     0.10000
H257        H  0.91642981  0.40678333  0.24872159     0.14500
H258        H  0.00356127  0.53736162  0.23589209     0.00200
H259        H  0.06819701  0.39220773  0.24697636     0.14800
H260        H  0.00074822  0.46625907  0.28485106     0.14600
C261        C  0.98862461  0.77191605  0.32349254    -0.12100
C262        C  0.02473386  0.77227498  0.31051824     0.03400
C263        C  0.02586638  0.73343353  0.29876468    -0.12600
C264        C  0.99135578  0.69395150  0.29960116     0.18300
C265        C  0.95438750  0.69425841  0.31222270    -0.09600
C266        C  0.95287057  0.73330657  0.32389349    -0.02600
H267        H  0.05441693  0.73352472  0.28909875     0.04800
C268        C  0.99754607  0.65029138  0.28839363     0.20200
H269        H  0.92514772  0.73213413  0.33381429     0.10000
C270        C  0.03717999  0.61737355  0.29146103    -0.16000
C271        C  0.04142229  0.57277002  0.28249326     0.03000
C272        C  0.00521772  0.56004690  0.27033149    -0.11300
C273        C  0.96768000  0.59474505  0.26639416    -0.01300
C274        C  0.96366034  0.63965149  0.27531345    -0.06500
H275        H  0.06438717  0.62596653  0.30113390     0.06000
H276        H  0.94048773  0.58626537  0.25672086     0.09400
Br277      Br  0.90795252  0.63994791  0.31483814    -0.06200
Br278      Br  0.07271808  0.82529805  0.30793081    -0.03100
Br279      Br  0.09873469  0.53195944  0.28680129    -0.00300
Br280      Br  0.91138613  0.68520935  0.26934367    -0.04700
C281        C  0.99624444  0.37081346  0.27100635    -0.12100
C282        C  0.03617071  0.35979542  0.28220173     0.03400
C283        C  0.03399624  0.31769542  0.29253923    -0.12600
C284        C  0.99421976  0.28352569  0.29150391     0.18300
C285        C  0.95588651  0.29236726  0.27975786    -0.09600
C286        C  0.95689864  0.33539478  0.26984013    -0.02600
H287        H  0.06388682  0.31153494  0.30148148     0.04800
C288        C  0.99256913  0.24006179  0.30314047     0.20200
H289        H  0.92665881  0.33942653  0.26105830     0.10000
C290        C  0.95073020  0.23370779  0.31363108    -0.16000
C291        C  0.94791326  0.19432657  0.32510194     0.03000
C292        C  0.98855897  0.16078724  0.32669481    -0.11300
C293        C  0.03043461  0.16725093  0.31618004    -0.01300
C294        C  0.03258638  0.20596266  0.30443675    -0.06500
H295        H  0.92009119  0.26006140  0.31303068     0.06000
H296        H  0.06181641  0.14184144  0.31702471     0.09400
Br297      Br  0.90208941  0.24570167  0.27610912    -0.06200
Br298      Br  0.09623362  0.39917752  0.28388677    -0.03100
Br299      Br  0.88817929  0.19088366  0.33853661    -0.00300
Br300      Br  0.09054836  0.20927515  0.29018087    -0.04700
C301        C  0.00651185  0.15839315  0.42824759    -0.12100
C302        C  0.97368932  0.16016784  0.44210400     0.03400
C303        C  0.97554000  0.20073726  0.45316362    -0.12600
C304        C  0.00884249  0.24061925  0.45048115     0.18300
C305        C  0.04211301  0.23851586  0.43676459    -0.09600
C306        C  0.04119100  0.19735567  0.42595712    -0.02600
H307        H  0.95019969  0.20164170  0.46377385     0.04800
C308        C  0.00703517  0.28471127  0.46175023     0.20200
H309        H  0.06631416  0.19685358  0.41528650     0.10000
C310        C  0.04892344  0.29707917  0.47162886    -0.16000
C311        C  0.04871801  0.33950417  0.48191343     0.03000
C312        C  0.00563657  0.36974248  0.48273759    -0.18900
C313        C  0.96394754  0.35746207  0.47279716    -0.01300
C314        C  0.96420768  0.31533258  0.46245757    -0.06500
H315        H  0.08229348  0.27420702  0.47105281     0.06000
H316        H  0.93119226  0.38125664  0.47292570     0.09400
Br317      Br  0.08678746  0.29252691  0.43147249    -0.06200
Br318      Br  0.92655269  0.10778602  0.44683608    -0.03100
Br319      Br  0.10953668  0.35694494  0.49337222    -0.00300
Br320      Br  0.90613700  0.30292461  0.44883485    -0.04700
C321        C  0.00307032  0.55418536  0.48177028    -0.12100
C322        C  0.95971804  0.56888870  0.47301324     0.03400
C323        C  0.96125583  0.61086607  0.46262189    -0.12600
C324        C  0.00555060  0.63889938  0.46088500     0.18300
C325        C  0.04843247  0.62502139  0.47006250    -0.09600
C326        C  0.04730505  0.58216420  0.47999723    -0.02600
H327        H  0.92793722  0.62139586  0.45572810     0.04800
C328        C  0.00628593  0.68197571  0.44929568     0.20200
H329        H  0.08126563  0.57046574  0.48624997     0.10000
C330        C  0.97634473  0.72363384  0.45281564    -0.16000
C331        C  0.97499012  0.76435457  0.44185994     0.03000
C332        C  0.00407048  0.76378184  0.42711347    -0.11300
C333        C  0.03450774  0.72241540  0.42372580    -0.01300
C334        C  0.03523578  0.68140798  0.43451050    -0.06500
H335        H  0.95401164  0.72447209  0.46415728     0.06000
H336        H  0.05647713  0.72119123  0.41230824     0.09400
Br337      Br  0.10874574  0.66433803  0.46993619    -0.06200
Br338      Br  0.89788539  0.53239628  0.47476104    -0.03100
Br339      Br  0.93490052  0.82073801  0.44801522    -0.00300
Br340      Br  0.07378366  0.62432604  0.42790602    -0.04700
C341        C  0.20037680  0.96024929  0.42483198    -0.12100
C342        C  0.20514754  0.99604182  0.43772698     0.03400
C343        C  0.24586283  0.99374967  0.44882842    -0.12600
C344        C  0.28298579  0.95705846  0.44708762     0.18300
C345        C  0.27853149  0.92185030  0.43405281    -0.09600
C346        C  0.23720616  0.92324017  0.42326657    -0.02600
H347        H  0.24869019  0.02084407  0.45886231     0.04800
C348        C  0.32598856  0.95596872  0.45893413     0.20200
H349        H  0.23468393  0.89603700  0.41325617     0.10000
C350        C  0.33299088  0.91412741  0.46921762    -0.16000
C351        C  0.37438999  0.91092565  0.47997957     0.03000
C352        C  0.40863124  0.95095389  0.48112111    -0.11300
C353        C  0.40178343  0.99260689  0.47074963    -0.01300
C354        C  0.36103959  0.99536520  0.45972697    -0.06500
H355        H  0.30687043  0.88316483  0.46849952     0.06000
H356        H  0.42877037  0.02289159  0.47107573     0.09400
Br357      Br  0.32944047  0.87306271  0.42974568    -0.06200
Br358      Br  0.15647493  0.04759770  0.44125933    -0.03100
Br359      Br  0.38528343  0.84913569  0.49140749    -0.00300
Br360      Br  0.35684103  0.05218953  0.44524115    -0.04700
C361        C  0.80546487  0.95991513  0.43082114    -0.12100
C362        C  0.76450704  0.99313147  0.43044241     0.03400
C363        C  0.72662474  0.98913264  0.44244124    -0.12600
C364        C  0.72833142  0.95220393  0.45479263     0.18300
C365        C  0.76908252  0.91911000  0.45526571    -0.09600
C366        C  0.80729227  0.92313040  0.44330444    -0.02600
H367        H  0.69468151  0.01393686  0.44180834     0.04800
C368        C  0.68505844  0.94706819  0.46615711     0.20200
H369        H  0.83833829  0.89722381  0.44367464     0.10000
C370        C  0.65096917  0.90790546  0.46356245    -0.16000
C371        C  0.60604102  0.90558031  0.47256692     0.03000
C372        C  0.59446768  0.94335815  0.48424426    -0.11300
C373        C  0.62918686  0.98202204  0.48700025    -0.01300
C374        C  0.67451962  0.98365601  0.47825616    -0.06500
H375        H  0.65886919  0.87968379  0.45421682     0.06000
H376        H  0.62064780  0.01160465  0.49576362     0.09400
Br377      Br  0.77386444  0.86813636  0.47199220    -0.06200
Br378      Br  0.75484038  0.04109070  0.41291647    -0.03100
Br379      Br  0.56214751  0.84993608  0.46847886    -0.00300
Br380      Br  0.72105622  0.03632776  0.48324083    -0.04700
C381        C  0.19720777  0.96195174  0.57505356    -0.12100
C382        C  0.19699566  0.92786059  0.56162406     0.03400
C383        C  0.23647430  0.92813475  0.55009286    -0.12600
C384        C  0.27739946  0.96070217  0.55204486     0.18300
C385        C  0.27747611  0.99498219  0.56544409    -0.09600
C386        C  0.23714688  0.99587708  0.57663812    -0.02600
H387        H  0.23583156  0.90201941  0.53973058     0.04800
C388        C  0.32041860  0.95684587  0.54040198     0.20200
H389        H  0.23800275  0.02186923  0.58703602     0.10000
C390        C  0.33367488  0.99776786  0.53036572    -0.16000
C391        C  0.37574720  0.99583145  0.51988254     0.03000
C392        C  0.40438808  0.95189071  0.51900516    -0.11300
C393        C  0.39079289  0.91093575  0.52892192    -0.01300
C394        C  0.34918939  0.91297462  0.53950686    -0.06500
H395        H  0.31199579  0.03177716  0.53104729     0.06000
H396        H  0.41348008  0.87751841  0.52869982     0.09400
Br397      Br  0.33322193  0.03870092  0.56979157    -0.06200
Br398      Br  0.14341708  0.88095394  0.55817935    -0.03100
Br399      Br  0.39518240  0.05548609  0.50835264    -0.00300
Br400      Br  0.33545804  0.85589897  0.55326461    -0.04700
C401        C  0.58947742  0.94485373  0.52145444    -0.12100
C402        C  0.61932845  0.90205163  0.52330608     0.03400
C403        C  0.66318134  0.90424760  0.53292474    -0.12600
C404        C  0.67736072  0.94837885  0.54117860     0.18300
C405        C  0.64745120  0.99125862  0.53927459    -0.09600
C406        C  0.60381190  0.98909525  0.52955234    -0.02600
H407        H  0.68572069  0.87100381  0.53432630     0.04800
C408        C  0.72167860  0.94811503  0.55243908     0.20200
H409        H  0.58101566  0.02219100  0.52820401     0.10000
C410        C  0.76307132  0.97908985  0.54900018    -0.16000
C411        C  0.80425688  0.98112409  0.55991873     0.03000
C412        C  0.80472470  0.95120873  0.57440544    -0.11300
C413        C  0.76426009  0.91891411  0.57747410    -0.01300
C414        C  0.72281248  0.91748534  0.56676517    -0.06500
H415        H  0.76313048  0.00202668  0.53784621     0.06000
H416        H  0.76402320  0.89589270  0.58861133     0.09400
Br417      Br  0.66326669  0.05312909  0.55018151    -0.06200
Br418      Br  0.60011504  0.83912879  0.51386004    -0.03100
Br419      Br  0.85979335  0.02345364  0.55412263    -0.00300
Br420      Br  0.66747162  0.87524606  0.57290708    -0.04700
C421        C  0.00025537  0.16042343  0.57481913    -0.12100
C422        C  0.03482144  0.16344701  0.56146929     0.03400
C423        C  0.03463469  0.20501802  0.55084803    -0.12600
C424        C  0.00100435  0.24447127  0.55344560     0.18300
C425        C  0.96649200  0.24140972  0.56679255    -0.09600
C426        C  0.96597124  0.19943313  0.57718503    -0.02600
H427        H  0.06093943  0.20665395  0.54051248     0.04800
C428        C  0.00231722  0.28830353  0.54210135     0.20200
H429        H  0.93966764  0.19805414  0.58752559     0.10000
C430        C  0.96051987  0.29881544  0.53199995    -0.16000
C431        C  0.96003164  0.34063279  0.52150924     0.03000
C432        C  0.00253458  0.37194270  0.52058745    -0.11300
C433        C  0.04407605  0.36168538  0.53080640    -0.01300
C434        C  0.04432485  0.32033379  0.54146209    -0.06500
H435        H  0.92767913  0.27494845  0.53256872     0.06000
H436        H  0.07632106  0.38640335  0.53062218     0.09400
Br437      Br  0.92139996  0.29486521  0.57199822    -0.06200
Br438      Br  0.08145020  0.11098599  0.55669105    -0.03100
Br439      Br  0.89890027  0.35583886  0.50996549    -0.00300
Br440      Br  0.10176044  0.31093817  0.55557836    -0.04700
C441        C  0.00371405  0.76010892  0.57705155    -0.12100
C442        C  0.03800944  0.72020129  0.57770824     0.03400
C443        C  0.03651630  0.68283306  0.56546841    -0.12600
C444        C  0.00165671  0.68429094  0.55229074     0.18300
C445        C  0.96694481  0.72387525  0.55173868    -0.09600
C446        C  0.96806053  0.76108335  0.56409994    -0.02600
H447        H  0.06226230  0.65181868  0.56641069     0.04800
C448        C  0.00080965  0.64259148  0.53994923     0.20200
H449        H  0.94130203  0.79130935  0.56346497     0.10000
C450        C  0.95747599  0.61289376  0.53842480    -0.16000
C451        C  0.95690994  0.57064848  0.52808785     0.03000
C452        C  0.00054341  0.55661761  0.51933132    -0.11300
C453        C  0.04388270  0.58608270  0.52088902    -0.01300
C454        C  0.04401786  0.62928102  0.53074727    -0.06500
H455        H  0.92422277  0.62197221  0.54559488     0.06000
H456        H  0.07819569  0.57492084  0.51473010     0.09400
Br457      Br  0.91825964  0.72984645  0.53415299    -0.06200
Br458      Br  0.08495572  0.71205325  0.59572360    -0.03100
Br459      Br  0.89602616  0.53251951  0.52658850    -0.00300
Br460      Br  0.10404590  0.66908187  0.53097561    -0.04700
C461        C  0.29522303  0.51845572  0.17367129    -0.12100
C462        C  0.25440106  0.55192903  0.17414380     0.03400
C463        C  0.21512238  0.54432585  0.18555745    -0.12600
C464        C  0.21555405  0.50390654  0.19667792     0.18300
C465        C  0.25661128  0.47097507  0.19640830    -0.09600
C466        C  0.29568783  0.47822366  0.18491652    -0.02600
H467        H  0.18332386  0.56936838  0.18545772     0.04800
C468        C  0.17136261  0.49486973  0.20762486     0.20200
H469        H  0.32669632  0.45222223  0.18478394     0.10000
C470        C  0.14116830  0.45278788  0.20468219    -0.16000
C471        C  0.09885330  0.44305729  0.21456022     0.03000
C472        C  0.08592498  0.47585113  0.22767538    -0.11300
C473        C  0.11538398  0.51859988  0.23038165    -0.01300
C474        C  0.15793449  0.52817480  0.22053337    -0.06500
H475        H  0.15045536  0.42751255  0.19456069     0.06000
H476        H  0.10606299  0.54389758  0.24049550     0.09400
Br477      Br  0.26145668  0.41611023  0.21170391    -0.06200
Br478      Br  0.24744402  0.60599912  0.15862755    -0.03100
Br479      Br  0.05863684  0.38584276  0.20905203    -0.00300
Br480      Br  0.19787545  0.58581907  0.22567666    -0.04700
C481        C  0.91062480  0.48959670  0.22982507    -0.12100
C482        C  0.86395685  0.50281252  0.23683716     0.03400
C483        C  0.82272079  0.51160943  0.22641258    -0.12600
C484        C  0.82722474  0.50725838  0.20898959     0.18300
C485        C  0.87436417  0.49613818  0.20193299    -0.09600
C486        C  0.91573193  0.48751346  0.21236366    -0.02600
H487        H  0.78673419  0.52071727  0.23192302     0.04800
C488        C  0.78199715  0.51245320  0.19840662     0.20200
H489        H  0.95144693  0.47731661  0.20686756     0.10000
C490        C  0.76667183  0.55983485  0.19325011    -0.16000
C491        C  0.72518984  0.56580118  0.18264223     0.03000
C492        C  0.69823533  0.52334704  0.17690377    -0.11300
C493        C  0.71303330  0.47605644  0.18266952    -0.01300
C494        C  0.75426267  0.47044291  0.19332517    -0.06500
H495        H  0.78761349  0.59235238  0.19732423     0.06000
H496        H  0.69287911  0.44294194  0.17871916     0.09400
Br497      Br  0.88326100  0.49088005  0.17815980    -0.06200
Br498      Br  0.85476786  0.50896747  0.26058535    -0.03100
Br499      Br  0.70930188  0.63303577  0.17642488    -0.00300
Br500      Br  0.77169874  0.40459133  0.20055903    -0.04700
C501        C  0.50743743  0.11526112  0.02070191    -0.12100
C502        C  0.47470487  0.12076017  0.03452999     0.03400
C503        C  0.47680553  0.16383772  0.04442764    -0.12600
C504        C  0.50864312  0.20385729  0.04033079     0.18300
C505        C  0.54116401  0.19854157  0.02644023    -0.09600
C506        C  0.54121316  0.15420378  0.01712624    -0.02600
H507        H  0.45238508  0.16654187  0.05523446     0.04800
C508        C  0.50777423  0.24996577  0.05090090     0.20200
H509        H  0.56723498  0.15059282  0.00678094     0.10000
C510        C  0.55270055  0.26824442  0.05776691    -0.16000
C511        C  0.55362361  0.31062498  0.06803980     0.03000
C512        C  0.50812213  0.33424035  0.07268863    -0.11300
C513        C  0.46313813  0.31613405  0.06567458    -0.01300
C514        C  0.46268249  0.27514802  0.05473149    -0.06500
H515        H  0.58763201  0.24925693  0.05515519     0.06000
H516        H  0.42786321  0.33395104  0.06868394     0.09400
Br517      Br  0.58425198  0.25134860  0.01882355    -0.06200
Br518      Br  0.42348092  0.07277370  0.03992267    -0.03100
Br519      Br  0.61903320  0.33349384  0.07478327    -0.00300
Br520      Br  0.39941265  0.25660078  0.04494487    -0.04700
C521        C  0.50536544  0.93033227  0.01773720    -0.12100
C522        C  0.54585444  0.89668536  0.01802475     0.03400
C523        C  0.54390649  0.85473848  0.02847279    -0.12600
C524        C  0.50239691  0.84607982  0.03893678     0.18300
C525        C  0.46218798  0.87999538  0.03874394    -0.09600
C526        C  0.46383004  0.92139865  0.02815141    -0.02600
H527        H  0.57567038  0.82969948  0.02888987     0.04800
C528        C  0.50398302  0.80474482  0.05123573     0.20200
H529        H  0.43315248  0.94777110  0.02842515     0.10000
C530        C  0.53685166  0.80855294  0.06489186    -0.16000
C531        C  0.53753603  0.77210833  0.07741981     0.03000
C532        C  0.50491509  0.73059610  0.07637938    -0.11300
C533        C  0.47236965  0.72658782  0.06260007    -0.01300
C534        C  0.47202046  0.76294963  0.05000796    -0.06500
H535        H  0.56119644  0.84081777  0.06603532     0.06000
H536        H  0.44742985  0.69478561  0.06154440     0.09400
Br537      Br  0.40625064  0.87387794  0.05375941    -0.06200
Br538      Br  0.60665598  0.90906615  0.00586480    -0.03100
Br539      Br  0.58070008  0.78358781  0.09629526    -0.00300
Br540      Br  0.42799281  0.75363917  0.03124585    -0.04700
C541        C  0.50007604  0.11952186  0.98290851    -0.12100
C542        C  0.53634818  0.13269843  0.97081069     0.03400
C543        C  0.53111722  0.17673800  0.96169171    -0.12600
C544        C  0.49073272  0.20897913  0.96461582     0.18300
C545        C  0.45489550  0.19638013  0.97690075    -0.09600
C546        C  0.45960334  0.15178406  0.98586009    -0.02600
H547        H  0.55885970  0.18600849  0.95226081     0.04800
C548        C  0.48630756  0.25450391  0.95424250     0.20200
H549        H  0.43157112  0.14218230  0.99515206     0.10000
C550        C  0.44623240  0.25870562  0.94297165    -0.16000
C551        C  0.44387412  0.29821934  0.93157345     0.03000
C552        C  0.48285513  0.33425340  0.93115964    -0.11300
C553        C  0.52213853  0.33064822  0.94281969    -0.01300
C554        C  0.52387285  0.29153926  0.95436570    -0.06500
H555        H  0.41742734  0.23010569  0.94267009     0.06000
H556        H  0.55197368  0.35819003  0.94287208     0.09400
Br557      Br  0.39991719  0.23953457  0.98221529    -0.06200
Br558      Br  0.59498658  0.09308430  0.96675247    -0.03100
Br559      Br  0.38839233  0.29763986  0.91620222    -0.00300
Br560      Br  0.57807710  0.29042219  0.97017468    -0.04700
C561        C  0.50082306  0.93532999  0.97993960    -0.12100
C562        C  0.45711191  0.90581624  0.97889201     0.03400
C563        C  0.45591340  0.86424731  0.96824777    -0.12600
C564        C  0.49748084  0.85210315  0.95824979     0.18300
C565        C  0.54028910  0.88311030  0.95868597    -0.09600
C566        C  0.54167973  0.92420875  0.96949086    -0.02600
H567        H  0.42210635  0.84181452  0.96752984     0.04800
C568        C  0.49426140  0.80899288  0.94665114     0.20200
H569        H  0.57462250  0.94796442  0.96963577     0.10000
C570        C  0.46127220  0.81119767  0.93298516    -0.16000
C571        C  0.45885965  0.77235810  0.92126229     0.03000
C572        C  0.48991683  0.73020459  0.92314670    -0.11300
C573        C  0.52232554  0.72774768  0.93698303    -0.01300
C574        C  0.52422679  0.76633063  0.94879588    -0.06500
H575        H  0.43819177  0.84389732  0.93120831     0.06000
H576        H  0.54605709  0.69546925  0.93868096     0.09400
Br577      Br  0.59643705  0.87271831  0.94402738    -0.06200
Br578      Br  0.39678880  0.92349785  0.99052546    -0.03100
Br579      Br  0.41567029  0.78123608  0.90226883    -0.00300
Br580      Br  0.56738840  0.75855932  0.96784540    -0.04700
C581        C  0.99486663  0.37048232  0.72993699    -0.12100
C582        C  0.99827766  0.32293432  0.73778140     0.03400
C583        C  0.99851102  0.27916896  0.72815012    -0.12600
C584        C  0.99554667  0.28111992  0.71069339     0.18300
C585        C  0.99139982  0.32751498  0.70278622    -0.09600
C586        C  0.99090457  0.37123337  0.71227585    -0.02600
H587        H  0.00148477  0.24334107  0.73431668     0.04800
C588        C  0.99741274  0.23482999  0.70066356     0.20200
H589        H  0.98673180  0.40536342  0.70531720     0.10000
C590        C  0.95346965  0.20695669  0.69817823    -0.16000
C591        C  0.95238761  0.16709931  0.68679842     0.03000
C592        C  0.99614562  0.15481427  0.67758900    -0.11300
C593        C  0.04075583  0.18125177  0.68094451    -0.01300
C594        C  0.04158775  0.22091368  0.69230046    -0.06500
H595        H  0.91945788  0.21725216  0.70474507     0.06000
H596        H  0.07496536  0.17233025  0.67427761     0.09400
Br597      Br  0.98579927  0.33285650  0.67887234    -0.06200
Br598      Br  0.00285749  0.31408138  0.76160439    -0.03100
Br599      Br  0.88996809  0.13151425  0.68470179    -0.00300
Br600      Br  0.10341119  0.25658215  0.69550276    -0.04700
C601        C  0.00114562  0.56141776  0.73322470    -0.12100
C602        C  0.97445198  0.60471718  0.73804123     0.03400
C603        C  0.97849076  0.64830374  0.72843794    -0.12600
C604        C  0.00960307  0.65024138  0.71430577     0.18300
C605        C  0.03955610  0.60897401  0.71037108    -0.09600
C606        C  0.03535265  0.56536027  0.71979443    -0.02600
H607        H  0.95592466  0.68042344  0.73167293     0.04800
C608        C  0.00679673  0.69342090  0.70286686     0.20200
H609        H  0.05811772  0.53370765  0.71623740     0.10000
C610        C  0.04478627  0.72969337  0.70295596    -0.16000
C611        C  0.04428345  0.76905150  0.69141761     0.03000
C612        C  0.00463119  0.77287403  0.67969878    -0.11300
C613        C  0.96615317  0.73697773  0.67997330    -0.01300
C614        C  0.96741260  0.69717199  0.69122071    -0.06500
H615        H  0.07533738  0.72686486  0.71184782     0.06000
H616        H  0.93591589  0.73863934  0.67093018     0.09400
Br617      Br  0.08427723  0.60938589  0.69153408    -0.06200
Br618      Br  0.92999648  0.60771404  0.75681183    -0.03100
Br619      Br  0.09822126  0.81655939  0.69261658    -0.00300
Br620      Br  0.91640376  0.64676754  0.68944544    -0.04700
C621        C  0.08459789  0.48048896  0.77218804    -0.12100
C622        C  0.08095384  0.49606943  0.78907878     0.03400
C623        C  0.12466291  0.50523348  0.79839893    -0.12600
C624        C  0.17235454  0.49975847  0.79119416     0.18300
C625        C  0.17604865  0.48638043  0.77421290    -0.09600
C626        C  0.13257903  0.47692856  0.76490295    -0.02600
H627        H  0.12148911  0.51538167  0.81149271     0.04800
C628        C  0.21770585  0.50461222  0.80185136     0.20200
H629        H  0.13637501  0.46643485  0.75186236     0.10000
C630        C  0.24582534  0.46191430  0.80544258    -0.16000
C631        C  0.28796411  0.46422352  0.81588879     0.03000
C632        C  0.30199946  0.51006790  0.82342396    -0.11300
C633        C  0.27455992  0.55308339  0.81931289    -0.01300
C634        C  0.23295846  0.55066959  0.80860588    -0.06500
H635        H  0.23485204  0.42642977  0.80004042     0.06000
H636        H  0.28486809  0.58879585  0.82466366     0.09400
Br637      Br  0.23978503  0.48096097  0.76318764    -0.06200
Br638      Br  0.01837252  0.50245390  0.80068276    -0.03100
Br639      Br  0.32515499  0.40351610  0.81853893    -0.00300
Br640      Br  0.19886754  0.61135219  0.80320279    -0.04700
C641        C  0.90537487  0.47094634  0.77368139    -0.12100
C642        C  0.89930224  0.44306839  0.78848585     0.03400
C643        C  0.85740630  0.45099837  0.79870079    -0.12600
C644        C  0.81985868  0.48483080  0.79403661     0.18300
C645        C  0.82484062  0.51093266  0.77881652    -0.09600
C646        C  0.86715381  0.50345710  0.76875292    -0.02600
H647        H  0.85380697  0.43023648  0.81026673     0.04800
C648        C  0.77627755  0.49261058  0.80529871     0.20200
H649        H  0.86932097  0.52171705  0.75670999     0.10000
C650        C  0.76793563  0.54004285  0.81212726    -0.16000
C651        C  0.72866095  0.54857052  0.82341613     0.03000
C652        C  0.69757787  0.50844112  0.82853914    -0.11300
C653        C  0.70563076  0.46115545  0.82141118    -0.01300
C654        C  0.74404576  0.45313913  0.80979903    -0.06500
H655        H  0.79256817  0.57064865  0.80875924     0.06000
H656        H  0.68177834  0.43001095  0.82482885     0.09400
Br657      Br  0.77366452  0.55487476  0.77072027    -0.06200
Br658      Br  0.94562107  0.39205034  0.79491693    -0.03100
Br659      Br  0.72142120  0.61572531  0.83140049    -0.00300
Br660      Br  0.74961296  0.38796729  0.80002752    -0.04700
C661        C  0.58724380  0.00757255  0.72859991    -0.12100
C662        C  0.63814331  0.01336700  0.73327136     0.03400
C663        C  0.67612026  0.00230402  0.72182640    -0.12600
C664        C  0.66465030  0.98482401  0.70576637     0.18300
C665        C  0.61416639  0.97679409  0.70128108    -0.09600
C666        C  0.57585198  0.98803710  0.71271161    -0.02600
H667        H  0.71497734  0.00777405  0.72542352     0.04800
C668        C  0.70623787  0.97800488  0.69376182     0.20200
H669        H  0.53707298  0.98264887  0.70903203     0.10000
C670        C  0.73330019  0.93331892  0.69363789    -0.16000
C671        C  0.77607422  0.92781701  0.68354715     0.03000
C672        C  0.79235208  0.96782270  0.67332331    -0.11300
C673        C  0.76481407  0.01249853  0.67360215    -0.01300
C674        C  0.72230492  0.01776707  0.68366815    -0.06500
H675        H  0.72168290  0.90297993  0.70171194     0.06000
H676        H  0.77623738  0.04378181  0.66592344     0.09400
Br677      Br  0.59614214  0.95153822  0.67962722    -0.06200
Br678      Br  0.65873279  0.03329885  0.75536055    -0.03100
Br679      Br  0.81162383  0.86594182  0.68523535    -0.00300
Br680      Br  0.68797764  0.08052131  0.68359757    -0.04700
C681        C  0.41350305  0.00732121  0.72930343    -0.12100
C682        C  0.40908622  0.03019728  0.71354895     0.03400
C683        C  0.36698595  0.02068803  0.70359796    -0.12600
C684        C  0.32839477  0.98911969  0.70923213     0.18300
C685        C  0.33377801  0.96474119  0.72477389    -0.09600
C686        C  0.37628451  0.97392627  0.73466464    -0.02600
H687        H  0.36381036  0.03880401  0.69152955     0.04800
C688        C  0.28290038  0.98286225  0.69872268     0.20200
H689        H  0.37946852  0.95635766  0.74682658     0.10000
C690        C  0.27176627  0.93612381  0.69178016    -0.16000
C691        C  0.23109458  0.92964213  0.68085951     0.03000
C692        C  0.20068269  0.97095347  0.67653860    -0.11300
C693        C  0.21148139  0.01746781  0.68387476    -0.01300
C694        C  0.25193511  0.02364937  0.69483707    -0.06500
H695        H  0.29564324  0.90463368  0.69459206     0.06000
H696        H  0.18862569  0.04960011  0.68096104     0.09400
Br697      Br  0.28288033  0.92115912  0.73349190    -0.06200
Br698      Br  0.45937442  0.07516915  0.70524983    -0.03100
Br699      Br  0.22191892  0.86374297  0.67192361    -0.00300
Br700      Br  0.26292399  0.08861270  0.70430477    -0.04700
C701        C  0.49803023  0.12216822  0.77064030    -0.12100
C702        C  0.45906408  0.12947682  0.78258835     0.03400
C703        C  0.45940381  0.17144783  0.79300299    -0.12600
C704        C  0.49737043  0.20736524  0.79178123     0.18300
C705        C  0.53472187  0.20191960  0.77954785    -0.09600
C706        C  0.53480755  0.16003743  0.76912726    -0.02600
H707        H  0.43034381  0.17559935  0.80239991     0.04800
C708        C  0.49911379  0.24857078  0.80406279     0.20200
H709        H  0.56462269  0.15808440  0.76007371     0.10000
C710        C  0.53660304  0.24838783  0.81636914    -0.16000
C711        C  0.53837461  0.28527677  0.82874371     0.03000
C712        C  0.50183234  0.32332650  0.82893918    -0.11300
C713        C  0.46448058  0.32348835  0.81651732    -0.01300
C714        C  0.46301403  0.28665181  0.80410990    -0.06500
H715        H  0.56409627  0.21873539  0.81652064     0.06000
H716        H  0.43635853  0.35252922  0.81641377     0.09400
Br717      Br  0.58647072  0.25110132  0.77657469    -0.06200
Br718      Br  0.40454420  0.08326767  0.78593347    -0.03100
Br719      Br  0.58925428  0.27880072  0.84562692    -0.00300
Br720      Br  0.41175473  0.29030052  0.78730110    -0.04700
C721        C  0.50151671  0.93456997  0.77251368    -0.12100
C722        C  0.53277296  0.89410925  0.76818369     0.03400
C723        C  0.53112201  0.85018300  0.77760461    -0.12600
C724        C  0.49953286  0.84578445  0.79156762     0.18300
C725        C  0.46925990  0.88647253  0.79618005    -0.09600
C726        C  0.46981790  0.92988110  0.78652534    -0.02600
H727        H  0.55563544  0.81960153  0.77427510     0.04800
C728        C  0.50165626  0.79991789  0.80183201     0.20200
H729        H  0.44594349  0.96059346  0.79020603     0.10000
C730        C  0.54633239  0.78839017  0.81020306    -0.16000
C731        C  0.54956325  0.74681477  0.82070805     0.03000
C732        C  0.50688598  0.71595552  0.82316242    -0.11300
C733        C  0.46288639  0.72654215  0.81409867    -0.01300
C734        C  0.46019316  0.76765821  0.80339405    -0.06500
H735        H  0.57872482  0.81255980  0.80879407     0.06000
H736        H  0.43007073  0.70293161  0.81541841     0.09400
Br737      Br  0.42950552  0.88624151  0.81624678    -0.06200
Br738      Br  0.58231465  0.89746593  0.75081735    -0.03100
Br739      Br  0.61308310  0.73663190  0.83153965    -0.00300
Br740      Br  0.39954715  0.77751301  0.79087387    -0.04700
C741        C  0.09066705  0.55031986  0.01982572    -0.12100
C742        C  0.12066294  0.50719694  0.01976804     0.03400
C743        C  0.16372578  0.50517628  0.02973626    -0.12600
C744        C  0.17594274  0.54428634  0.04071145     0.18300
C745        C  0.14469383  0.58660940  0.04128964    -0.09600
C746        C  0.10282681  0.58950468  0.03076747    -0.02600
H747        H  0.18695958  0.47216473  0.02932170     0.04800
C748        C  0.22081032  0.53993769  0.05161516     0.20200
H749        H  0.07891656  0.62201963  0.03138712     0.10000
C750        C  0.25892357  0.57606854  0.05053091    -0.16000
C751        C  0.30060631  0.57469960  0.06117871     0.03000
C752        C  0.30544306  0.53567994  0.07287993    -0.11300
C753        C  0.26850198  0.49826831  0.07340377    -0.01300
C754        C  0.22615045  0.50042706  0.06310642    -0.06500
H755        H  0.25583806  0.60596432  0.04148907     0.06000
H756        H  0.27135372  0.46830167  0.08242718     0.09400
Br757      Br  0.15525771  0.63978735  0.05703836    -0.06200
Br758      Br  0.10152177  0.44791276  0.00791954    -0.03100
Br759      Br  0.35002808  0.62642450  0.05880783    -0.00300
Br760      Br  0.17519687  0.45049213  0.06626685    -0.04700
C761        C  0.90479928  0.54635705  0.01940309    -0.12100
C762        C  0.89485806  0.50512254  0.02981391     0.03400
C763        C  0.85112964  0.50392239  0.03946977    -0.12600
C764        C  0.81626076  0.54291017  0.03873426     0.18300
C765        C  0.82539173  0.58335167  0.02787177    -0.09600
C766        C  0.86949447  0.58488623  0.01838419    -0.02600
H767        H  0.84476476  0.47282211  0.04785012     0.04800
C768        C  0.77343249  0.54289208  0.05056865     0.20200
H769        H  0.87658846  0.61657183  0.01032049     0.10000
C770        C  0.77077060  0.58090461  0.06258441    -0.16000
C771        C  0.73334145  0.58100683  0.07482671     0.03000
C772        C  0.69765708  0.54187712  0.07534147    -0.11300
C773        C  0.70037575  0.50373875  0.06329734    -0.01300
C774        C  0.73765943  0.50408005  0.05093437    -0.06500
H775        H  0.79888524  0.61018485  0.06268480     0.06000
H776        H  0.67326297  0.47355685  0.06345400     0.09400
Br777      Br  0.77871768  0.63715569  0.02544050    -0.06200
Br778      Br  0.93921990  0.44904048  0.03102448    -0.03100
Br779      Br  0.73634327  0.63382124  0.09108053    -0.00300
Br780      Br  0.73748544  0.45128038  0.03468950    -0.04700
C781        C  0.29810770  0.54050320  0.92616677    -0.12100
C782        C  0.29479855  0.50742105  0.93984652     0.03400
C783        C  0.25604793  0.51282650  0.95154326    -0.12600
C784        C  0.21924499  0.54968735  0.94959189     0.18300
C785        C  0.22305062  0.58316879  0.93607191    -0.09600
C786        C  0.26261448  0.57878483  0.92468322    -0.02600
H787        H  0.25381480  0.48727124  0.96201415     0.04800
C788        C  0.17569567  0.55066764  0.96113886     0.20200
H789        H  0.26439915  0.60429635  0.91419177     0.10000
C790        C  0.16624784  0.59322542  0.97093364    -0.16000
C791        C  0.12369275  0.59579711  0.98122800     0.03000
C792        C  0.09064326  0.55480861  0.98213220    -0.11300
C793        C  0.09997565  0.51263718  0.97225886    -0.01300
C794        C  0.14215008  0.51001942  0.96197105    -0.06500
H795        H  0.19141443  0.62495296  0.97024998     0.06000
H796        H  0.07390933  0.48155560  0.97247880     0.09400
Br797      Br  0.17325662  0.63305467  0.93175488    -0.06200
Br798      Br  0.34228567  0.45488653  0.94348946    -0.03100
Br799      Br  0.10985310  0.65734669  0.99252906    -0.00300
Br800      Br  0.15034399  0.45089884  0.94869191    -0.04700
C801        C  0.90539668  0.54946513  0.98213741    -0.12100
C802        C  0.89047941  0.58888020  0.97163894     0.03400
C803        C  0.84737368  0.58395176  0.96180200    -0.12600
C804        C  0.81858116  0.54018796  0.96227319     0.18300
C805        C  0.83299796  0.50098147  0.97289212    -0.09600
C806        C  0.87619542  0.50582021  0.98273489    -0.02600
H807        H  0.83631137  0.61430987  0.95368756     0.04800
C808        C  0.77450910  0.53594682  0.95117870     0.20200
H809        H  0.88746367  0.47520275  0.99070408     0.10000
C810        C  0.78090385  0.51669420  0.93500330    -0.16000
C811        C  0.74067245  0.51486749  0.92378002     0.03000
C812        C  0.69317066  0.53251543  0.92871857    -0.11300
C813        C  0.68678356  0.55202603  0.94488043    -0.01300
C814        C  0.72710761  0.55362271  0.95614467    -0.06500
H815        H  0.81750986  0.50380913  0.93102562     0.06000
H816        H  0.65040822  0.56576168  0.94875689     0.09400
Br817      Br  0.79511789  0.44022143  0.97416316    -0.06200
Br818      Br  0.92699078  0.65058292  0.97062357    -0.03100
Br819      Br  0.75308631  0.49072666  0.90151695    -0.00300
Br820      Br  0.71630882  0.58028928  0.97814928    -0.04700
C821        C  0.58226754  0.01685519  0.27602351    -0.12100
C822        C  0.59592413  0.04922194  0.28922331     0.03400
C823        C  0.63618088  0.03707051  0.29968576    -0.12600
C824        C  0.66360187  0.99307017  0.29724377     0.18300
C825        C  0.64842783  0.95963065  0.28457918    -0.09600
C826        C  0.60787261  0.97155470  0.27419741    -0.02600
H827        H  0.64651327  0.06234383  0.30971605     0.04800
C828        C  0.70817696  0.98344763  0.30789698     0.20200
H829        H  0.59728383  0.94592617  0.26431883     0.10000
C830        C  0.70832802  0.94264047  0.31888372    -0.16000
C831        C  0.74883540  0.93432829  0.32973177     0.03000
C832        C  0.78993327  0.96778660  0.32985437    -0.11300
C833        C  0.78990632  0.00810470  0.31866752    -0.01300
C834        C  0.74986624  0.01589121  0.30769097    -0.06500
H835        H  0.67624253  0.91775129  0.31927677     0.06000
H836        H  0.82122638  0.03397817  0.31850094     0.09400
Br837      Br  0.68354709  0.89865415  0.28030222    -0.06200
Br838      Br  0.55950428  0.10910572  0.29413898    -0.03100
Br839      Br  0.74356217  0.87911256  0.34488745    -0.00300
Br840      Br  0.75441554  0.07101568  0.29245950    -0.04700
C841        C  0.41011093  0.00966718  0.27461885    -0.12100
C842        C  0.39176473  0.96027130  0.27690844     0.03400
C843        C  0.34961422  0.95160089  0.28699968    -0.12600
C844        C  0.32558847  0.99056198  0.29536536     0.18300
C845        C  0.34601848  0.03882396  0.29438310    -0.09600
C846        C  0.38736175  0.04804309  0.28401839    -0.02600
H847        H  0.33500055  0.91402191  0.28820588     0.04800
C848        C  0.27996876  0.97985561  0.30534993     0.20200
H849        H  0.40200402  0.08570111  0.28343650     0.10000
C850        C  0.28375975  0.94994824  0.31968355    -0.16000
C851        C  0.24198804  0.94156542  0.32995224     0.03000
C852        C  0.19563017  0.96383070  0.32597098    -0.11300
C853        C  0.19140825  0.99209619  0.31131053    -0.01300
C854        C  0.23282486  0.99931806  0.30082324    -0.06500
H855        H  0.31967888  0.93420102  0.32313238     0.06000
H856        H  0.15575613  0.00876145  0.30804063     0.09400
Br857      Br  0.31989226  0.09291104  0.30748400    -0.06200
Br858      Br  0.41958435  0.90167351  0.26694898    -0.03100
Br859      Br  0.25152342  0.90296128  0.34991761    -0.00300
Br860      Br  0.22287861  0.03491709  0.28028011    -0.04700
C861        C  0.49625930  0.33152793  0.17491038    -0.12100
C862        C  0.45647241  0.29680851  0.17662245     0.03400
C863        C  0.45875443  0.25980087  0.18894528    -0.12600
C864        C  0.49974001  0.25638350  0.19991316     0.18300
C865        C  0.53938380  0.29106490  0.19828744    -0.09600
C866        C  0.53741838  0.32796446  0.18587454    -0.02600
H867        H  0.42860147  0.23271059  0.18976794     0.04800
C868        C  0.50115530  0.21459107  0.21219865     0.20200
H869        H  0.56827784  0.35418586  0.18484834     0.10000
C870        C  0.53973233  0.17941334  0.21125204    -0.16000
C871        C  0.54009882  0.13726423  0.22158923     0.03000
C872        C  0.49974747  0.12775046  0.23285230    -0.11300
C873        C  0.46224110  0.16468687  0.23419684    -0.01300
C874        C  0.46288759  0.20750438  0.22413264    -0.06500
H875        H  0.56961352  0.18440602  0.20220348     0.06000
H876        H  0.43213107  0.16157306  0.24309074     0.09400
Br877      Br  0.59648801  0.29059043  0.21293119    -0.06200
Br878      Br  0.39938403  0.29484392  0.16194858    -0.03100
Br879      Br  0.59753457  0.09457102  0.21938103    -0.00300
Br880      Br  0.41123700  0.25618822  0.22756514    -0.04700
C881        C  0.50277935  0.94047028  0.23077097    -0.12100
C882        C  0.54716298  0.92178547  0.22358854     0.03400
C883        C  0.54544742  0.87882769  0.21356572    -0.12600
C884        C  0.49987425  0.85369155  0.21068017     0.18300
C885        C  0.45593727  0.87131080  0.21853368    -0.09600
C886        C  0.45741702  0.91537186  0.22790441    -0.02600
H887        H  0.57960165  0.86554471  0.20773905     0.04800
C888        C  0.49861851  0.81019350  0.19912457     0.20200
H889        H  0.42280599  0.93038397  0.23285673     0.10000
C890        C  0.52730240  0.76775958  0.20277133    -0.16000
C891        C  0.52692551  0.72627372  0.19204851     0.03000
C892        C  0.49632979  0.72626739  0.17762765    -0.11300
C893        C  0.46804406  0.76881378  0.17393075    -0.01300
C894        C  0.47009238  0.81099816  0.18423618    -0.06500
H895        H  0.55013943  0.76695617  0.21399216     0.06000
H896        H  0.44600982  0.77012415  0.16253646     0.09400
Br897      Br  0.39341361  0.83564218  0.21739865    -0.06200
Br898      Br  0.61048346  0.95467342  0.22667192    -0.03100
Br899      Br  0.56784996  0.67022093  0.19787947    -0.00300
Br900      Br  0.43688043  0.87015680  0.17660004    -0.04700
loop_ 
_geom_bond_atom_site_label_1 
_geom_bond_atom_site_label_2 
_geom_bond_distance 
_geom_bond_site_symmetry_2 
_ccdc_geom_bond_type 
C1            C2   1.552       .  S
C1            C7   1.535       .  S
C1            C5   1.536       .  S
C1          C872   1.546       .  S
C2            H9   1.079       .  S
C2            C3   1.377       .  D
C3            C4   1.544   1_545  S
C3          C841   1.507       .  S
C4            C8   1.543       .  S
C4            C6   1.538   1_565  S
C4           H10   1.105       .  S
C5           H11   1.086       .  S
C5            C6   1.365       .  D
C6          C821   1.485       .  S
C7           H12   1.086       .  S
C7            C8   1.360   1_545  D
C8          C881   1.480       .  S
C13          C14   1.412   1_556  A
C13          C18   1.401       .  A
C13         C801   1.482       .  S
C14          C15   1.404       .  A
C14         C761   1.482       .  S
C15          C16   1.403   1_655  A
C15          H20   1.084       .  S
C16          C17   1.415   1_554  A
C16         C741   1.482       .  S
C17          C18   1.402   1_455  A
C17         C792   1.480       .  S
C18          H19   1.084       .  S
C21          C22   1.545       .  S
C21          C27   1.538       .  S
C21          C25   1.534       .  S
C21         C701   1.538       .  S
C22          H29   1.080       .  S
C22          C23   1.366       .  D
C23          C24   1.540   1_545  S
C23         C661   1.485       .  S
C24          C28   1.540       .  S
C24          C26   1.537   1_565  S
C24          H30   1.110       .  S
C25          H31   1.086       .  S
C25          C26   1.363       .  D
C26         C681   1.474       .  S
C27          H32   1.086       .  S
C27          C28   1.366   1_545  D
C28         C721   1.489       .  S
C33          C34   1.538   1_655  S
C33          C39   1.548       .  S
C33          C37   1.529       .  S
C33         C581   1.543       .  S
C34          H41   1.086       .  S
C34          C35   1.370       .  D
C35          C36   1.543   1_455  S
C35         C621   1.494       .  S
C36          C40   1.542       .  S
C36          C38   1.550       .  S
C36          H42   1.106       .  S
C37          H43   1.087       .  S
C37          C38   1.360       .  D
C38         C641   1.479       .  S
C39          H44   1.082       .  S
C39          C40   1.370       .  D
C40         C601   1.501   1_655  S
C45          C46   1.414   1_556  A
C45          C50   1.402   1_565  A
C45         C561   1.484       .  S
C46          C47   1.405   1_565  A
C46         C521   1.486       .  S
C47          C48   1.407       .  A
C47          H52   1.084       .  S
C48          C49   1.420   1_554  A
C48         C501   1.498       .  S
C49          C50   1.406       .  A
C49         C541   1.486       .  S
C50          H51   1.084       .  S
N53          N54   1.322       .  A
N53          N59   1.316       .  A
N53         Mn82   2.211       .  S
N54          C61   1.354       .  A
N55          N57   1.316       .  A
N55          N56   1.320       .  A
N55         Mn71   2.211       .  S
N56          C62   1.353       .  A
N57          N58   1.320       .  A
N57         Mn82   2.198       .  S
N58          C62   1.354       .  A
N59          N60   1.321       .  A
N59         Mn71   2.203       .  S
N60          C61   1.353       .  A
C61         C572   1.480       .  S
C62         C732   1.488       .  S
N63          N69   1.315       .  A
N63          N64   1.319       .  A
N63         Mn93   2.200       .  S
N64          C72   1.354       .  A
N65          N66   1.322       .  A
N65          N67   1.317       .  A
N65         Mn71   2.213       .  S
N66          C73   1.353       .  A
N67          N68   1.320       .  A
N67         Mn93   2.200       .  S
N68          C73   1.351       .  A
N69          N70   1.321       .  A
N69         Mn71   2.204       .  S
N70          C72   1.354       .  A
Mn71        Cl95   2.545       .  S
C72         C652   1.487       .  S
C73         C812   1.471       .  S
N74          N75   1.323       .  A
N74          N80   1.315       .  A
N74         Mn82   2.215       .  S
N75          C83   1.357       .  A
N76          N78   1.315       .  A
N76          N77   1.321       .  A
N76         Mn94   2.203       .  S
N77          C84   1.354       .  A
N78          N79   1.319       .  A
N78         Mn82   2.198       .  S
N79          C84   1.352       .  A
N80          N81   1.319       .  A
N80         Mn94   2.197       .  S
N81          C83   1.352       .  A
Mn82        Cl95   2.551       .  S
C83         C632   1.490       .  S
C84         C781   1.477       .  S
N85          N86   1.321       .  A
N85          N91   1.315       .  A
N85         Mn93   2.207       .  S
N86          C96   1.355       .  A
N87          N88   1.320       .  A
N87          N89   1.315       .  A
N87         Mn94   2.202       .  S
N88          C97   1.354       .  A
N89          N90   1.320       .  A
N89         Mn93   2.201       .  S
N90          C97   1.353       .  A
N91          N92   1.319       .  A
N91         Mn94   2.198       .  S
N92          C96   1.351       .  A
Mn93        Cl95   2.549       .  S
Mn94        Cl95   2.544       .  S
C96         C552   1.483       .  S
C97         C712   1.479       .  S
N98          N99   1.320       .  A
N98         N104   1.317       .  A
N98        Mn127   2.206       .  S
N99         C106   1.353       .  A
N100        N102   1.317       .  A
N100        N101   1.320       .  A
N100       Mn116   2.207       .  S
N101        C107   1.353       .  A
N102        N103   1.320       .  A
N102       Mn127   2.204       .  S
N103        C107   1.353       .  A
N104        N105   1.323       .  A
N104       Mn116   2.217       .  S
N105        C106   1.355       .  A
C106        C461   1.485       .  S
C107        C752   1.478       .  S
N108        N114   1.316       .  A
N108        N109   1.321       .  A
N108       Mn138   2.206       .  S
N109        C117   1.353       .  A
N110        N111   1.323       .  A
N110        N112   1.317       .  A
N110       Mn116   2.222       .  S
N111        C118   1.356       .  A
N112        N113   1.320       .  A
N112       Mn138   2.199       .  S
N113        C118   1.351       .  A
N114        N115   1.323       .  A
N114       Mn116   2.211       .  S
N115        C117   1.355       .  A
Mn116      Cl140   2.554       .  S
C117        C532   1.482       .  S
C118        C892   1.479       .  S
N119        N120   1.324       .  A
N119        N125   1.315       .  A
N119       Mn127   2.216       .  S
N120        C128   1.358       .  A
N121        N123   1.316       .  A
N121        N122   1.322       .  A
N121       Mn139   2.209       .  S
N122        C129   1.355       .  A
N123        N124   1.321       .  A
N123       Mn127   2.210       .  S
N124        C129   1.354       .  A
N125        N126   1.319       .  A
N125       Mn139   2.204       .  S
N126        C128   1.352       .  A
Mn127      Cl140   2.549       .  S
C128        C512   1.497       .  S
C129        C861   1.489       .  S
N130        N131   1.321       .  A
N130        N136   1.315       .  A
N130       Mn138   2.204       .  S
N131        C141   1.354       .  A
N132        N133   1.321       .  A
N132        N134   1.315       .  A
N132       Mn139   2.208       .  S
N133        C142   1.355       .  A
N134        N135   1.318       .  A
N134       Mn138   2.195       .  S
N135        C142   1.351       .  A
N136        N137   1.320       .  A
N136       Mn139   2.202       .  S
N137        C141   1.355       .  A
Mn138      Cl140   2.546       .  S
Mn139      Cl140   2.550       .  S
C141        C492   1.491       .  S
C142        C772   1.480       .  S
N143        N144   1.321       .  A
N143        N149   1.315   1_655  A
N143       Mn172   2.206       .  S
N144        C151   1.354       .  A
N145        N147   1.315   1_455  A
N145        N146   1.322       .  A
N145       Mn161   2.209       .  S
N146        C152   1.354       .  A
N147        N148   1.321       .  A
N147       Mn172   2.206       .  S
N148        C152   1.354   1_655  A
N149        N150   1.320       .  A
N149       Mn161   2.204       .  S
N150        C151   1.355   1_455  A
C151        C592   1.488       .  S
C152        C421   1.481       .  S
N153        N159   1.316       .  A
N153        N154   1.320       .  A
N153       Mn183   2.205       .  S
N154        C162   1.353       .  A
N155        N156   1.320   1_565  A
N155        N157   1.314       .  A
N155       Mn161   2.202   1_565  S
N156        C163   1.355   1_545  A
N157        N158   1.320       .  A
N157       Mn183   2.202       .  S
N158        C163   1.353       .  A
N159        N160   1.319   1_565  A
N159       Mn161   2.197   1_565  S
N160        C162   1.352   1_545  A
Mn161      Cl185   2.550   1_545  S
C162        C381   1.472       .  S
C163        C692   1.489       .  S
N164        N165   1.322       .  A
N164        N170   1.317       .  A
N164       Mn172   2.211   1_565  S
N165        C173   1.354       .  A
N166        N168   1.315       .  A
N166        N167   1.323       .  A
N166       Mn184   2.210       .  S
N167        C174   1.356       .  A
N168        N169   1.318   1_565  A
N168       Mn172   2.199   1_565  S
N169        C174   1.353   1_545  A
N170        N171   1.320       .  A
N170       Mn184   2.204       .  S
N171        C173   1.352       .  A
Mn172      Cl185   2.546   1_645  S
C173        C412   1.476       .  S
C174        C672   1.488       .  S
N175        N176   1.320       .  A
N175        N181   1.316   1_455  A
N175       Mn183   2.199       .  S
N176        C186   1.352       .  A
N177        N178   1.322       .  A
N177        N179   1.316   1_655  A
N177       Mn184   2.208       .  S
N178        C187   1.354   1_655  A
N179        N180   1.321       .  A
N179       Mn183   2.208       .  S
N180        C187   1.354       .  A
N181        N182   1.322       .  A
N181       Mn184   2.216       .  S
N182        C186   1.356   1_655  A
Mn183      Cl185   2.546       .  S
Mn184      Cl185   2.553   1_655  S
C186        C612   1.483       .  S
C187        C441   1.483       .  S
N188        N189   1.321       .  A
N188        N194   1.316       .  A
N188       Mn217   2.198       .  S
N189        C196   1.352       .  A
N190        N192   1.316       .  A
N190        N191   1.321   1_565  A
N190       Mn206   2.209   1_565  S
N191        C197   1.354   1_545  A
N192        N193   1.320       .  A
N192       Mn217   2.206       .  S
N193        C197   1.354       .  A
N194        N195   1.319   1_565  A
N194       Mn206   2.203   1_565  S
N195        C196   1.351   1_545  A
C196        C852   1.471       .  S
C197        C341   1.482       .  S
N198        N204   1.315   1_655  A
N198        N199   1.321       .  A
N198       Mn228   2.207       .  S
N199        C207   1.354   1_655  A
N200        N201   1.322       .  A
N200        N202   1.315   1_455  A
N200       Mn206   2.210       .  S
N201        C208   1.356   1_455  A
N202        N203   1.321       .  A
N202       Mn228   2.208       .  S
N203        C208   1.354       .  A
N204        N205   1.321       .  A
N204       Mn206   2.204       .  S
N205        C207   1.354       .  A
Mn206      Cl230   2.548   1_445  S
C207        C301   1.481       .  S
C208        C292   1.491       .  S
N209        N210   1.321       .  A
N209        N215   1.316   1_455  A
N209       Mn217   2.203       .  S
N210        C218   1.353       .  A
N211        N213   1.317   1_655  A
N211        N212   1.324       .  A
N211       Mn229   2.215       .  S
N212        C219   1.356       .  A
N213        N214   1.320       .  A
N213       Mn217   2.207       .  S
N214        C219   1.353   1_455  A
N215        N216   1.322       .  A
N215       Mn229   2.208       .  S
N216        C218   1.354   1_655  A
Mn217      Cl230   2.549   1_455  S
C218        C332   1.477       .  S
C219        C261   1.484       .  S
N220        N221   1.318   1_565  A
N220        N226   1.316       .  A
N220       Mn228   2.198   1_565  S
N221        C231   1.351   1_545  A
N222        N223   1.320       .  A
N222        N224   1.316       .  A
N222       Mn229   2.201       .  S
N223        C232   1.352       .  A
N224        N225   1.319   1_565  A
N224       Mn228   2.201   1_565  S
N225        C232   1.352   1_545  A
N226        N227   1.323       .  A
N226       Mn229   2.214       .  S
N227        C231   1.356       .  A
Mn228      Cl230   2.544   1_545  S
Mn229      Cl230   2.555       .  S
C231        C832   1.482       .  S
C232        C361   1.474       .  S
C233        C234   1.414       .  A
C233        C238   1.405       .  A
C233        C452   1.486       .  S
C234        C235   1.404       .  A
C234        C321   1.482       .  S
C235        C236   1.405       .  A
C235        H240   1.085       .  S
C236        C237   1.417       .  A
C236        C312   1.486       .  S
C237        C238   1.405       .  A
C237        C432   1.486       .  S
C238        H239   1.084       .  S
C241        C242   1.413       .  A
C241        C246   1.399       .  A
C241        C401   1.483       .  S
C242        C243   1.405       .  A
C242        C372   1.482       .  S
C243        C244   1.403       .  A
C243        H248   1.084       .  S
C244        C245   1.416       .  A
C244        C352   1.488       .  S
C245        C246   1.404       .  A
C245        C392   1.479       .  S
C246        H247   1.084       .  S
C249        C250   1.548       .  S
C249        C255   1.543   1_655  S
C249        C253   1.537   1_655  S
C249        C281   1.547       .  S
C250        H257   1.080       .  S
C250        C251   1.364       .  D
C251        C252   1.535   1_655  S
C251        C481   1.480       .  S
C252        C256   1.537       .  S
C252        C254   1.540       .  S
C252        H258   1.111       .  S
C253        H259   1.086       .  S
C253        C254   1.366       .  D
C254        C472   1.484       .  S
C255        H260   1.086       .  S
C255        C256   1.370       .  D
C256        C272   1.486       .  S
C261        C262   1.414   1_655  A
C261        C266   1.405       .  A
C262        C263   1.402       .  A
C262       Br278   1.921       .  S
C263        C264   1.402   1_455  A
C263        H267   1.084       .  S
C264        C265   1.409       .  A
C264        C268   1.483       .  S
C265        C266   1.402       .  A
C265       Br277   1.920       .  S
C266        H269   1.083       .  S
C268        C270   1.401   1_655  A
C268        C274   1.409       .  A
C270        C271   1.399       .  A
C270        H275   1.083       .  S
C271        C272   1.410       .  A
C271       Br279   1.914       .  S
C272        C273   1.405   1_455  A
C273        C274   1.403       .  A
C273        H276   1.083       .  S
C274       Br280   1.918       .  S
C281        C282   1.422   1_655  A
C281        C286   1.415       .  A
C282        C283   1.401       .  A
C282       Br298   1.919       .  S
C283        C284   1.401   1_455  A
C283        H287   1.083       .  S
C284        C285   1.408       .  A
C284        C288   1.493       .  S
C285        C286   1.401       .  A
C285       Br297   1.922       .  S
C286        H289   1.074       .  S
C288        C290   1.404       .  A
C288        C294   1.412   1_655  A
C290        C291   1.401       .  A
C290        H295   1.083       .  S
C291        C292   1.417       .  A
C291       Br299   1.921       .  S
C292        C293   1.407   1_655  A
C293        C294   1.402       .  A
C293        H296   1.083       .  S
C294       Br300   1.920       .  S
C301        C302   1.411   1_455  A
C301        C306   1.405       .  A
C302        C303   1.401       .  A
C302       Br318   1.919       .  S
C303        C304   1.404   1_655  A
C303        H307   1.083       .  S
C304        C305   1.410       .  A
C304        C308   1.486       .  S
C305        C306   1.401       .  A
C305       Br317   1.920       .  S
C306        H309   1.083       .  S
C308        C310   1.405       .  A
C308        C314   1.410   1_455  A
C310        C311   1.403       .  A
C310        H315   1.083       .  S
C311        C312   1.410       .  A
C311       Br319   1.917       .  S
C312        C313   1.403   1_455  A
C313        C314   1.399       .  A
C313        H316   1.083       .  S
C314       Br320   1.919       .  S
C321        C322   1.408   1_455  A
C321        C326   1.402       .  A
C322        C323   1.401       .  A
C322       Br338   1.919       .  S
C323        C324   1.404   1_655  A
C323        H327   1.083       .  S
C324        C325   1.409       .  A
C324        C328   1.482       .  S
C325        C326   1.398       .  A
C325       Br337   1.919       .  S
C326        H329   1.081       .  S
C328        C330   1.404   1_455  A
C328        C334   1.410       .  A
C330        C331   1.402       .  A
C330        H335   1.084       .  S
C331        C332   1.409   1_655  A
C331       Br339   1.919       .  S
C332        C333   1.403       .  A
C333        C334   1.399       .  A
C333        H336   1.084       .  S
C334       Br340   1.921       .  S
C341        C342   1.412       .  A
C341        C346   1.404       .  A
C342        C343   1.403       .  A
C342       Br358   1.920   1_565  S
C343        C344   1.405       .  A
C343        H347   1.083   1_565  S
C344        C345   1.409       .  A
C344        C348   1.486       .  S
C345        C346   1.399       .  A
C345       Br357   1.919       .  S
C346        H349   1.084       .  S
C348        C350   1.405       .  A
C348        C354   1.409       .  A
C350        C351   1.401       .  A
C350        H355   1.083       .  S
C351        C352   1.410       .  A
C351       Br359   1.917       .  S
C352        C353   1.405       .  A
C353        C354   1.400       .  A
C353        H356   1.083   1_565  S
C354       Br360   1.919   1_565  S
C361        C362   1.412       .  A
C361        C366   1.405       .  A
C362        C363   1.395       .  A
C362       Br378   1.921   1_565  S
C363        C364   1.400       .  A
C363        H367   1.084   1_565  S
C364        C365   1.406       .  A
C364        C368   1.473       .  S
C365        C366   1.400       .  A
C365       Br377   1.918       .  S
C366        H369   1.083       .  S
C368        C370   1.402       .  A
C368        C374   1.405       .  A
C370        C371   1.397       .  A
C370        H375   1.083       .  S
C371        C372   1.411       .  A
C371       Br379   1.921       .  S
C372        C373   1.405       .  A
C373        C374   1.396       .  A
C373        H376   1.082   1_565  S
C374       Br380   1.918   1_565  S
C381        C382   1.408       .  A
C381        C386   1.403       .  A
C382        C383   1.398       .  A
C382       Br398   1.919       .  S
C383        C384   1.403       .  A
C383        H387   1.084       .  S
C384        C385   1.410       .  A
C384        C388   1.479       .  S
C385        C386   1.398       .  A
C385       Br397   1.921   1_565  S
C386        H389   1.084   1_565  S
C388        C390   1.405       .  A
C388        C394   1.409       .  A
C390        C391   1.400       .  A
C390        H395   1.083   1_565  S
C391        C392   1.409       .  A
C391       Br399   1.917   1_565  S
C392        C393   1.402       .  A
C393        C394   1.395       .  A
C393        H396   1.084       .  S
C394       Br400   1.920       .  S
C401        C402   1.408       .  A
C401        C406   1.403       .  A
C402        C403   1.399       .  A
C402       Br418   1.916       .  S
C403        C404   1.405       .  A
C403        H407   1.083       .  S
C404        C405   1.411       .  A
C404        C408   1.484       .  S
C405        C406   1.399       .  A
C405       Br417   1.919   1_565  S
C406        H409   1.083   1_565  S
C408        C410   1.406       .  A
C408        C414   1.410       .  A
C410        C411   1.403       .  A
C410        H415   1.083   1_565  S
C411        C412   1.409       .  A
C411       Br419   1.919   1_565  S
C412        C413   1.402       .  A
C413        C414   1.397       .  A
C413        H416   1.084       .  S
C414       Br420   1.920       .  S
C421        C422   1.411       .  A
C421        C426   1.404   1_455  A
C422        C423   1.402       .  A
C422       Br438   1.919       .  S
C423        C424   1.405       .  A
C423        H427   1.083       .  S
C424        C425   1.410   1_455  A
C424        C428   1.486       .  S
C425        C426   1.400       .  A
C425       Br437   1.920       .  S
C426        H429   1.083       .  S
C428        C430   1.405   1_455  A
C428        C434   1.410       .  A
C430        C431   1.402       .  A
C430        H435   1.083       .  S
C431        C432   1.410   1_655  A
C431       Br439   1.917       .  S
C432        C433   1.404       .  A
C433        C434   1.399       .  A
C433        H436   1.084       .  S
C434       Br440   1.919       .  S
C441        C442   1.412       .  A
C441        C446   1.405   1_455  A
C442        C443   1.400       .  A
C442       Br458   1.920       .  S
C443        C444   1.404       .  A
C443        H447   1.083       .  S
C444        C445   1.412   1_455  A
C444        C448   1.490       .  S
C445        C446   1.403       .  A
C445       Br457   1.919       .  S
C446        H449   1.083       .  S
C448        C450   1.406   1_455  A
C448        C454   1.412       .  A
C450        C451   1.401       .  A
C450        H455   1.083       .  S
C451        C452   1.409   1_655  A
C451       Br459   1.918       .  S
C452        C453   1.402       .  A
C453        C454   1.400       .  A
C453        H456   1.081       .  S
C454       Br460   1.920       .  S
C461        C462   1.414       .  A
C461        C466   1.405       .  A
C462        C463   1.402       .  A
C462       Br478   1.919       .  S
C463        C464   1.403       .  A
C463        H467   1.083       .  S
C464        C465   1.409       .  A
C464        C468   1.486       .  S
C465        C466   1.401       .  A
C465       Br477   1.919       .  S
C466        H469   1.083       .  S
C468        C470   1.404       .  A
C468        C474   1.410       .  A
C470        C471   1.400       .  A
C470        H475   1.083       .  S
C471        C472   1.410       .  A
C471       Br479   1.920       .  S
C472        C473   1.404       .  A
C473        C474   1.403       .  A
C473        H476   1.084       .  S
C474       Br480   1.918       .  S
C481        C482   1.410       .  A
C481        C486   1.402       .  A
C482        C483   1.400       .  A
C482       Br498   1.919       .  S
C483        C484   1.401       .  A
C483        H487   1.083       .  S
C484        C485   1.409       .  A
C484        C488   1.479       .  S
C485        C486   1.402       .  A
C485       Br497   1.918       .  S
C486        H489   1.084       .  S
C488        C490   1.400       .  A
C488        C494   1.405       .  A
C490        C491   1.403       .  A
C490        H495   1.084       .  S
C491        C492   1.420       .  A
C491       Br499   1.921       .  S
C492        C493   1.408       .  A
C493        C494   1.398       .  A
C493        H496   1.083       .  S
C494       Br500   1.919       .  S
C501        C502   1.415       .  A
C501        C506   1.406       .  A
C502        C503   1.400       .  A
C502       Br518   1.922       .  S
C503        C504   1.405       .  A
C503        H507   1.083       .  S
C504        C505   1.415       .  A
C504        C508   1.497       .  S
C505        C506   1.402       .  A
C505       Br517   1.920       .  S
C506        H509   1.083       .  S
C508        C510   1.403       .  A
C508        C514   1.414       .  A
C510        C511   1.401       .  A
C510        H515   1.083       .  S
C511        C512   1.419       .  A
C511       Br519   1.922       .  S
C512        C513   1.408       .  A
C513        C514   1.404       .  A
C513        H516   1.083       .  S
C514       Br520   1.922       .  S
C521        C522   1.410       .  A
C521        C526   1.404       .  A
C522        C523   1.403       .  A
C522       Br538   1.917       .  S
C523        C524   1.405       .  A
C523        H527   1.083       .  S
C524        C525   1.408       .  A
C524        C528   1.483       .  S
C525        C526   1.398       .  A
C525       Br537   1.919       .  S
C526        H529   1.083       .  S
C528        C530   1.402       .  A
C528        C534   1.409       .  A
C530        C531   1.400       .  A
C530        H535   1.084       .  S
C531        C532   1.413       .  A
C531       Br539   1.920       .  S
C532        C533   1.405       .  A
C533        C534   1.402       .  A
C533        H536   1.083       .  S
C534       Br540   1.918       .  S
C541        C542   1.411       .  A
C541        C546   1.405       .  A
C542        C543   1.397       .  A
C542       Br558   1.920       .  S
C543        C544   1.403       .  A
C543        H547   1.084       .  S
C544        C545   1.409       .  A
C544        C548   1.482       .  S
C545        C546   1.401       .  A
C545       Br557   1.918       .  S
C546        H549   1.083       .  S
C548        C550   1.402       .  A
C548        C554   1.408       .  A
C550        C551   1.400       .  A
C550        H555   1.084       .  S
C551        C552   1.417       .  A
C551       Br559   1.922       .  S
C552        C553   1.405       .  A
C553        C554   1.399       .  A
C553        H556   1.083       .  S
C554       Br560   1.919       .  S
C561        C562   1.408       .  A
C561        C566   1.404       .  A
C562        C563   1.402       .  A
C562       Br578   1.917       .  S
C563        C564   1.404       .  A
C563        H567   1.083       .  S
C564        C565   1.410       .  A
C564        C568   1.483       .  S
C565        C566   1.400       .  A
C565       Br577   1.920       .  S
C566        H569   1.083       .  S
C568        C570   1.403       .  A
C568        C574   1.409       .  A
C570        C571   1.401       .  A
C570        H575   1.083       .  S
C571        C572   1.412       .  A
C571       Br579   1.920       .  S
C572        C573   1.404       .  A
C573        C574   1.400       .  A
C573        H576   1.083       .  S
C574       Br580   1.919       .  S
C581        C582   1.426       .  A
C581        C586   1.414       .  A
C582        C583   1.403       .  A
C582       Br598   1.921   1_655  S
C583        C584   1.397       .  A
C583        H587   1.084   1_655  S
C584        C585   1.402       .  A
C584        C588   1.478       .  S
C585        C586   1.396       .  A
C585       Br597   1.921       .  S
C586        H589   1.078       .  S
C588        C590   1.401       .  A
C588        C594   1.405   1_655  A
C590        C591   1.403       .  A
C590        H595   1.083       .  S
C591        C592   1.418       .  A
C591       Br599   1.922       .  S
C592        C593   1.407   1_655  A
C593        C594   1.397       .  A
C593        H596   1.083       .  S
C594       Br600   1.919       .  S
C601        C602   1.417   1_455  A
C601        C606   1.411       .  A
C602        C603   1.403       .  A
C602       Br618   1.912       .  S
C603        C604   1.401   1_655  A
C603        H607   1.084       .  S
C604        C605   1.403       .  A
C604        C608   1.479       .  S
C605        C606   1.397       .  A
C605       Br617   1.919       .  S
C606        H609   1.083       .  S
C608        C610   1.402       .  A
C608        C614   1.406   1_455  A
C610        C611   1.403       .  A
C610        H615   1.083       .  S
C611        C612   1.416       .  A
C611       Br619   1.920       .  S
C612        C613   1.404   1_455  A
C613        C614   1.397       .  A
C613        H616   1.083       .  S
C614       Br620   1.919       .  S
C621        C622   1.415       .  A
C621        C626   1.408       .  A
C622        C623   1.403       .  A
C622       Br638   1.915       .  S
C623        C624   1.403       .  A
C623        H627   1.083       .  S
C624        C625   1.406       .  A
C624        C628   1.483       .  S
C625        C626   1.399       .  A
C625       Br637   1.918       .  S
C626        H629   1.083       .  S
C628        C630   1.402       .  A
C628        C634   1.406       .  A
C630        C631   1.400       .  A
C630        H635   1.084       .  S
C631        C632   1.418       .  A
C631       Br639   1.922       .  S
C632        C633   1.408       .  A
C633        C634   1.401       .  A
C633        H636   1.083       .  S
C634       Br640   1.918       .  S
C641        C642   1.409       .  A
C641        C646   1.400       .  A
C642        C643   1.399       .  A
C642       Br658   1.918       .  S
C643        C644   1.404       .  A
C643        H647   1.083       .  S
C644        C645   1.410       .  A
C644        C648   1.484       .  S
C645        C646   1.399       .  A
C645       Br657   1.919       .  S
C646        H649   1.081       .  S
C648        C650   1.402       .  A
C648        C654   1.408       .  A
C650        C651   1.400       .  A
C650        H655   1.084       .  S
C651        C652   1.417       .  A
C651       Br659   1.921       .  S
C652        C653   1.407       .  A
C653        C654   1.398       .  A
C653        H656   1.083       .  S
C654       Br660   1.920       .  S
C661        C662   1.415       .  A
C661        C666   1.405   1_545  A
C662        C663   1.396       .  A
C662       Br678   1.922       .  S
C663        C664   1.398   1_545  A
C663        H667   1.084       .  S
C664        C665   1.408       .  A
C664        C668   1.477       .  S
C665        C666   1.403       .  A
C665       Br677   1.917       .  S
C666        H669   1.083       .  S
C668        C670   1.402       .  A
C668        C674   1.404   1_565  A
C670        C671   1.404       .  A
C670        H675   1.084       .  S
C671        C672   1.416       .  A
C671       Br679   1.920       .  S
C672        C673   1.408   1_565  A
C673        C674   1.396       .  A
C673        H676   1.083       .  S
C674       Br680   1.919       .  S
C681        C682   1.406       .  A
C681        C686   1.401   1_545  A
C682        C683   1.397       .  A
C682       Br698   1.918       .  S
C683        C684   1.404   1_545  A
C683        H687   1.084       .  S
C684        C685   1.411       .  A
C684        C688   1.483       .  S
C685        C686   1.402       .  A
C685       Br697   1.919       .  S
C686        H689   1.084       .  S
C688        C690   1.401       .  A
C688        C694   1.408   1_565  A
C690        C691   1.401       .  A
C690        H695   1.084       .  S
C691        C692   1.419       .  A
C691       Br699   1.921       .  S
C692        C693   1.407   1_565  A
C693        C694   1.398       .  A
C693        H696   1.083       .  S
C694       Br700   1.920       .  S
C701        C702   1.424       .  A
C701        C706   1.414       .  A
C702        C703   1.399       .  A
C702       Br718   1.925       .  S
C703        C704   1.398       .  A
C703        H707   1.084       .  S
C704        C705   1.402       .  A
C704        C708   1.477       .  S
C705        C706   1.397       .  A
C705       Br717   1.920       .  S
C706        H709   1.075       .  S
C708        C710   1.401       .  A
C708        C714   1.406       .  A
C710        C711   1.398       .  A
C710        H715   1.084       .  S
C711        C712   1.414       .  A
C711       Br719   1.921       .  S
C712        C713   1.405       .  A
C713        C714   1.399       .  A
C713        H716   1.083       .  S
C714       Br720   1.918       .  S
C721        C722   1.413       .  A
C721        C726   1.407       .  A
C722        C723   1.400       .  A
C722       Br738   1.916       .  S
C723        C724   1.402       .  A
C723        H727   1.084       .  S
C724        C725   1.408       .  A
C724        C728   1.481       .  S
C725        C726   1.398       .  A
C725       Br737   1.920       .  S
C726        H729   1.083       .  S
C728        C730   1.401       .  A
C728        C734   1.407       .  A
C730        C731   1.400       .  A
C730        H735   1.084       .  S
C731        C732   1.418       .  A
C731       Br739   1.922       .  S
C732        C733   1.408       .  A
C733        C734   1.399       .  A
C733        H736   1.083       .  S
C734       Br740   1.920       .  S
C741        C742   1.409       .  A
C741        C746   1.403       .  A
C742        C743   1.398       .  A
C742       Br758   1.917       .  S
C743        C744   1.404       .  A
C743        H747   1.083       .  S
C744        C745   1.412       .  A
C744        C748   1.484       .  S
C745        C746   1.399       .  A
C745       Br757   1.920       .  S
C746        H749   1.083       .  S
C748        C750   1.404       .  A
C748        C754   1.411       .  A
C750        C751   1.400       .  A
C750        H755   1.084       .  S
C751        C752   1.411       .  A
C751       Br759   1.919       .  S
C752        C753   1.404       .  A
C753        C754   1.398       .  A
C753        H756   1.084       .  S
C754       Br760   1.921       .  S
C761        C762   1.409       .  A
C761        C766   1.403       .  A
C762        C763   1.397       .  A
C762       Br778   1.920       .  S
C763        C764   1.403       .  A
C763        H767   1.083       .  S
C764        C765   1.411       .  A
C764        C768   1.481       .  S
C765        C766   1.398       .  A
C765       Br777   1.919       .  S
C766        H769   1.083       .  S
C768        C770   1.401       .  A
C768        C774   1.409       .  A
C770        C771   1.396       .  A
C770        H775   1.084       .  S
C771        C772   1.414       .  A
C771       Br779   1.922       .  S
C772        C773   1.405       .  A
C773        C774   1.400       .  A
C773        H776   1.083       .  S
C774       Br780   1.919       .  S
C781        C782   1.411       .  A
C781        C786   1.404       .  A
C782        C783   1.400       .  A
C782       Br798   1.920       .  S
C783        C784   1.404       .  A
C783        H787   1.084       .  S
C784        C785   1.409       .  A
C784        C788   1.482       .  S
C785        C786   1.397       .  A
C785       Br797   1.920       .  S
C786        H789   1.084       .  S
C788        C790   1.407       .  A
C788        C794   1.409       .  A
C790        C791   1.402       .  A
C790        H795   1.083       .  S
C791        C792   1.408       .  A
C791       Br799   1.918       .  S
C792        C793   1.401       .  A
C793        C794   1.394       .  A
C793        H796   1.084       .  S
C794       Br800   1.920       .  S
C801        C802   1.409       .  A
C801        C806   1.404       .  A
C802        C803   1.397       .  A
C802       Br818   1.919       .  S
C803        C804   1.401       .  A
C803        H807   1.084       .  S
C804        C805   1.407       .  A
C804        C808   1.475       .  S
C805        C806   1.399       .  A
C805       Br817   1.917       .  S
C806        H809   1.083       .  S
C808        C810   1.401       .  A
C808        C814   1.407       .  A
C810        C811   1.398       .  A
C810        H815   1.083       .  S
C811        C812   1.409       .  A
C811       Br819   1.920       .  S
C812        C813   1.402       .  A
C813        C814   1.402       .  A
C813        H816   1.083       .  S
C814       Br820   1.918       .  S
C821        C822   1.412       .  A
C821        C826   1.404   1_545  A
C822        C823   1.400       .  A
C822       Br838   1.920       .  S
C823        C824   1.404   1_545  A
C823        H827   1.084       .  S
C824        C825   1.409       .  A
C824        C828   1.485       .  S
C825        C826   1.400       .  A
C825       Br837   1.918       .  S
C826        H829   1.082       .  S
C828        C830   1.404       .  A
C828        C834   1.409   1_565  A
C830        C831   1.403       .  A
C830        H835   1.083       .  S
C831        C832   1.413       .  A
C831       Br839   1.919       .  S
C832        C833   1.404   1_565  A
C833        C834   1.397       .  A
C833        H836   1.084       .  S
C834       Br840   1.920       .  S
C841        C842   1.423   1_545  A
C841        C846   1.412       .  A
C842        C843   1.401       .  A
C842       Br858   1.913       .  S
C843        C844   1.397       .  A
C843        H847   1.084       .  S
C844        C845   1.405   1_565  A
C844        C848   1.481       .  S
C845        C846   1.399       .  A
C845       Br857   1.920       .  S
C846        H849   1.083       .  S
C848        C850   1.403       .  A
C848        C854   1.410       .  A
C850        C851   1.400       .  A
C850        H855   1.084       .  S
C851        C852   1.411       .  A
C851       Br859   1.920       .  S
C852        C853   1.401       .  A
C853        C854   1.398       .  A
C853        H856   1.084   1_565  S
C854       Br860   1.919   1_565  S
C861        C862   1.415       .  A
C861        C866   1.407       .  A
C862        C863   1.401       .  A
C862       Br878   1.921       .  S
C863        C864   1.403       .  A
C863        H867   1.083       .  S
C864        C865   1.411       .  A
C864        C868   1.492       .  S
C865        C866   1.403       .  A
C865       Br877   1.919       .  S
C866        H869   1.083       .  S
C868        C870   1.400       .  A
C868        C874   1.408       .  A
C870        C871   1.401       .  A
C870        H875   1.083       .  S
C871        C872   1.424       .  A
C871       Br879   1.923       .  S
C872        C873   1.414       .  A
C873        C874   1.403       .  A
C873        H876   1.074       .  S
C874       Br880   1.920       .  S
C881        C882   1.408       .  A
C881        C886   1.400       .  A
C882        C883   1.403       .  A
C882       Br898   1.917       .  S
C883        C884   1.406       .  A
C883        H887   1.083       .  S
C884        C885   1.411       .  A
C884        C888   1.487       .  S
C885        C886   1.399       .  A
C885       Br897   1.920       .  S
C886        H889   1.082       .  S
C888        C890   1.405       .  A
C888        C894   1.411       .  A
C890        C891   1.403       .  A
C890        H895   1.084       .  S
C891        C892   1.411       .  A
C891       Br899   1.919       .  S
C892        C893   1.402       .  A
C893        C894   1.399       .  A
C893        H896   1.084       .  S
C894       Br900   1.921       .  S
