geometry optimzed in LAMMPS
_audit_creation_date              2020-12-01 
_audit_creation_method            'lammps2cif' 
_symmetry_space_group_name_H-M    'P1' 
_symmetry_Int_Tables_number       1 
_symmetry_cell_setting            triclinic 
loop_ 
_symmetry_equiv_pos_as_xyz 
  x,y,z 
_cell_length_a                    18.4995675 
_cell_length_b                    18.516704044392572 
_cell_length_c                    26.877862821190384 
_cell_angle_alpha                 89.99863406698452 
_cell_angle_beta                  90.0014904482321 
_cell_angle_gamma                 120.0595180540436 
loop_ 
_atom_site_label 
_atom_site_type_symbol 
_atom_site_fract_x 
_atom_site_fract_y 
_atom_site_fract_z 
_atom_site_charge 
O1          O  0.43311981  0.19570206  0.80624631    -0.81700
O2          O  0.35607735  0.02346430  0.79061551    -0.78700
C3          C  0.30315640  0.02759688  0.81898341     1.01800
O4          O  0.26186945  0.06645257  0.80624287    -0.78700
O5          O  0.16653079  0.14332544  0.79067683    -0.81400
C6          C  0.22371314  0.19621520  0.81903070     1.06300
O7          O  0.30394264  0.23752840  0.80625518    -0.74100
O8          O  0.47636222  0.33295313  0.79066555    -0.74300
C9          C  0.47209622  0.27585727  0.81901748     1.06300
O10         O  0.45257627  0.12762250  0.70938146    -0.81700
O11         O  0.27613431  0.01588375  0.70017275    -0.78700
C12         C  0.20517444  0.00807206  0.68713519     1.01800
O13         O  0.17419648  0.04699728  0.70935846    -0.78800
O14         O  0.23892166  0.22327395  0.70021502    -0.81400
C15         C  0.30214232  0.29421320  0.68718494     1.06300
O16         O  0.37215497  0.32519639  0.70939111    -0.74200
O17         O  0.48389316  0.26068468  0.70018123    -0.74300
C18         C  0.49164549  0.19756264  0.68716923     1.06300
Cr19       Cr  0.35502731  0.10239773  0.74999444     1.93700
Cr20       Cr  0.24659337  0.14446039  0.75001209     1.93200
Cr21       Cr  0.39731543  0.25292325  0.75000393     1.39100
O22         O  0.33297637  0.16661133  0.71162921    -1.19400
C23         C  0.49456221  0.42334483  0.00351023     0.83900
N24         N  0.07024899  0.99439211  0.00388945    -0.74400
C25         C  0.07629849  0.07069583  0.00348887     0.86400
N26         N  0.00525232  0.07526542  0.00364320    -0.74300
C27         C  0.42885003  0.50492385  0.00329627     0.86400
N28         N  0.42420870  0.42932574  0.00369488    -0.76100
N29         N  0.35350892  0.01020914  0.00412712     0.00200
C30         C  0.30239589  0.00247326  0.96542699     0.02800
C31         C  0.23639082  0.01026447  0.98107353    -0.20100
C32         C  0.24460124  0.52212042  0.03130306    -0.20300
C33         C  0.31676933  0.52317615  0.04441393     0.02700
H34         H  0.18848855  0.00834497  0.95726464     0.16500
H35         H  0.20211716  0.52804573  0.05619053     0.16500
N36         N  0.15699829  0.14602932  0.00425319     0.00200
C37         C  0.20693922  0.18290830  0.04446135     0.02800
C38         C  0.27795872  0.25511946  0.03122989    -0.20100
C39         C  0.27402612  0.26321078  0.98100958    -0.20300
C40         C  0.20013029  0.19710299  0.96549345     0.02700
H41         H  0.32645733  0.29775021  0.05605147     0.16500
H42         H  0.31984479  0.31113132  0.95712180     0.16500
N43         N  0.98922740  0.34272875  0.00425725     0.00200
C44         C  0.97634175  0.29288961  0.04446891     0.02800
C45         C  0.97751288  0.22194740  0.03122766    -0.20100
C46         C  0.48938624  0.22581741  0.98100170    -0.20300
C47         C  0.49704942  0.29958828  0.96548061     0.02700
H48         H  0.97172125  0.17352604  0.05603010     0.16500
H49         H  0.49148175  0.18001793  0.95715163     0.16500
O50         O  0.22376172  0.48369059  0.20017078    -0.81700
O51         O  0.04731934  0.37195106  0.20937847    -0.78700
C52         C  0.00824864  0.30201044  0.18716774     1.01800
O53         O  0.01600127  0.23888842  0.20018154    -0.78700
O54         O  0.12774031  0.17437743  0.20939247    -0.81400
C55         C  0.19775199  0.20536193  0.18718640     1.06300
O56         O  0.26097312  0.27630069  0.20021681    -0.74100
O57         O  0.32569942  0.45257685  0.20936019    -0.74300
C58         C  0.29472181  0.49150292  0.18713534     1.06300
O59         O  0.14382084  0.47610856  0.29061212    -0.81700
O60         O  0.06677893  0.30387085  0.30624475    -0.78700
C61         C  0.02780327  0.22371586  0.31901746     1.01800
O62         O  0.02353663  0.16661962  0.29066717    -0.78800
O63         O  0.19595647  0.26204244  0.30625644    -0.81400
C64         C  0.27618638  0.30335547  0.31903229     1.06300
O65         O  0.33336730  0.35624667  0.29067872    -0.74200
O66         O  0.23802724  0.43311794  0.30624327    -0.74300
C67         C  0.19674067  0.47197379  0.31898195     1.06300
Cr68       Cr  0.14486977  0.39717580  0.24999261     1.93700
Cr69       Cr  0.10258153  0.24664940  0.25000469     1.93200
Cr70       Cr  0.25330285  0.35511239  0.25001328     1.39100
O71         O  0.16691888  0.33296227  0.21162925    -1.19400
C72         C  0.00533506  0.07622915  0.50351351     0.83900
N73         N  0.42964830  0.50518178  0.50389361    -0.74400
C74         C  0.42359871  0.42887804  0.50348947     0.86400
N75         N  0.49464486  0.42430833  0.50363952    -0.74300
C76         C  0.07104717  0.49465007  0.50329239     0.86400
N77         N  0.07568847  0.07024813  0.50369443    -0.76100
N78         N  0.14638854  0.48936512  0.50412453     0.00200
C79         C  0.19750043  0.49709978  0.46542549     0.02800
C80         C  0.26350753  0.48931212  0.48107469    -0.20100
C81         C  0.25529957  0.97745974  0.53130456    -0.20300
C82         C  0.18313058  0.97640198  0.54441310     0.02700
H83         H  0.31140972  0.49123226  0.45726720     0.16500
H84         H  0.29778585  0.97153809  0.55619369     0.16500
N85         N  0.51067030  0.15684549  0.50425944     0.00200
C86         C  0.52355480  0.20668355  0.54447041     0.02800
C87         C  0.52238703  0.27762754  0.53122687    -0.20100
C88         C  0.01051661  0.27375958  0.48100041    -0.20300
C89         C  0.00285182  0.19998811  0.46548114     0.02700
H90         H  0.52817959  0.32604899  0.55602814     0.16500
H91         H  0.00842411  0.31956106  0.45714898     0.16500
N92         N  0.34289894  0.35354455  0.50425357     0.00200
C93         C  0.29295566  0.31666804  0.54446059     0.02800
C94         C  0.22193692  0.24445607  0.53122908    -0.20100
C95         C  0.22587245  0.23636165  0.48100974    -0.20300
C96         C  0.29976924  0.30246842  0.46549446     0.02700
H97         H  0.17343698  0.20182655  0.55605018     0.16500
H98         H  0.18005512  0.18844007  0.45712191     0.16500
C99         C  0.00064079  0.19816476  0.36930099    -0.09600
C100        C  0.99431945  0.18203957  0.41320006    -0.11100
C101        C  0.18828961  0.50556147  0.41310914    -0.09600
C102        C  0.19829212  0.49917055  0.36924376    -0.11100
C103        C  0.31783575  0.31178395  0.41322676    -0.09600
C104        C  0.30173254  0.30185291  0.36932591    -0.11100
C105        C  0.97095348  0.30187657  0.14039309    -0.09600
C106        C  0.96654740  0.30758260  0.09590296    -0.11100
C107        C  0.19787368  0.16828543  0.14038725    -0.09600
C108        C  0.19222111  0.15829500  0.09588423    -0.11100
C109        C  0.33177183  0.52867033  0.14031225    -0.09600
C110        C  0.34158132  0.53300874  0.09579804    -0.11100
C111        C  0.52893916  0.19769577  0.64039530    -0.09600
C112        C  0.53334627  0.19198913  0.59590555    -0.11100
C113        C  0.30160362  0.00039799  0.86924550    -0.09600
C114        C  0.31160512  0.99400797  0.91311159    -0.11100
C115        C  0.49926000  0.30140958  0.86930082    -0.09600
C116        C  0.50558220  0.31753695  0.91319931    -0.11100
C117        C  0.16812586  0.97090688  0.64031129    -0.09600
C118        C  0.15831863  0.96656965  0.59579670    -0.11100
C119        C  0.30767209  0.34128283  0.59588286    -0.09600
C120        C  0.30201910  0.33129186  0.64038587    -0.11100
C121        C  0.19816899  0.19771629  0.86932424    -0.09600
C122        C  0.18206599  0.18778556  0.91322498    -0.11100
O123        O  0.43311986  0.69570215  0.80624632    -0.81700
O124        O  0.35607740  0.52346439  0.79061557    -0.78700
C125        C  0.30315643  0.52759697  0.81898346     1.01800
O126        O  0.26186949  0.56645266  0.80624290    -0.78700
O127        O  0.16653085  0.64332554  0.79067683    -0.81400
C128        C  0.22371322  0.69621527  0.81903071     1.06300
O129        O  0.30394271  0.73752846  0.80625520    -0.74100
O130        O  0.47636228  0.83295321  0.79066555    -0.74300
C131        C  0.47209628  0.77585735  0.81901749     1.06300
O132        O  0.45257633  0.62762259  0.70938147    -0.81700
O133        O  0.27613436  0.51588382  0.70017276    -0.78700
C134        C  0.20517448  0.50807212  0.68713521     1.01800
O135        O  0.17419652  0.54699733  0.70935849    -0.78800
O136        O  0.23892170  0.72327399  0.70021501    -0.81400
C137        C  0.30214235  0.79421326  0.68718496     1.06300
O138        O  0.37215499  0.82519646  0.70939114    -0.74200
O139        O  0.48389319  0.76068477  0.70018121    -0.74300
C140        C  0.49164553  0.69756272  0.68716922     1.06300
Cr141      Cr  0.35502736  0.60239781  0.74999446     1.93700
Cr142      Cr  0.24659342  0.64446046  0.75001210     1.93200
Cr143      Cr  0.39731548  0.75292333  0.75000393     1.39100
O144        O  0.33297641  0.66661139  0.71162922    -1.19400
C145        C  0.49456216  0.92334471  0.00351027     0.83900
N146        N  0.07024914  0.49439222  0.00388949    -0.74400
C147        C  0.07629864  0.57069594  0.00348892     0.86400
N148        N  0.00525247  0.57526551  0.00364324    -0.74300
C149        C  0.42885006  0.00492380  0.00329622     0.86400
N150        N  0.42420869  0.92932567  0.00369488    -0.76100
N151        N  0.35350886  0.51020917  0.00412718     0.00200
C152        C  0.30239583  0.50247325  0.96542706     0.02800
C153        C  0.23639080  0.51026456  0.98107360    -0.20100
C154        C  0.24460124  0.02212027  0.03130299    -0.20300
C155        C  0.31676933  0.02317604  0.04441387     0.02700
H156        H  0.18848857  0.50834510  0.95726469     0.16500
H157        H  0.20211705  0.02804550  0.05619048     0.16500
N158        N  0.15699844  0.64602946  0.00425321     0.00200
C159        C  0.20693937  0.68290853  0.04446135     0.02800
C160        C  0.27795883  0.75511975  0.03122988    -0.20100
C161        C  0.27402619  0.76321098  0.98100956    -0.20300
C162        C  0.20013040  0.69710309  0.96549345     0.02700
H163        H  0.32645737  0.79775051  0.05605143     0.16500
H164        H  0.31984477  0.81113149  0.95712175     0.16500
N165        N  0.98922726  0.84272864  0.00425725     0.00200
C166        C  0.97634168  0.79288952  0.04446892     0.02800
C167        C  0.97751299  0.72194738  0.03122768    -0.20100
C168        C  0.48938626  0.72581734  0.98100171    -0.20300
C169        C  0.49704938  0.79958819  0.96548062     0.02700
H170        H  0.97172152  0.67352615  0.05603010     0.16500
H171        H  0.49148186  0.68001792  0.95715162     0.16500
O172        O  0.22376167  0.98369053  0.20017076    -0.81700
O173        O  0.04731929  0.87195099  0.20937847    -0.78700
C174        C  0.00824861  0.80201037  0.18716773     1.01800
O175        O  0.01600128  0.73888837  0.20018153    -0.78700
O176        O  0.12774037  0.67437746  0.20939248    -0.81400
C177        C  0.19775207  0.70536201  0.18718643     1.06300
O178        O  0.26097316  0.77630077  0.20021686    -0.74100
O179        O  0.32569940  0.95257686  0.20936023    -0.74300
C180        C  0.29472176  0.99150286  0.18713533     1.06300
O181        O  0.14382076  0.97610854  0.29061212    -0.81700
O182        O  0.06677885  0.80387079  0.30624475    -0.78700
C183        C  0.02780317  0.72371579  0.31901744     1.01800
O184        O  0.02353659  0.66661958  0.29066716    -0.78800
O185        O  0.19595641  0.76204243  0.30625647    -0.81400
C186        C  0.27618631  0.80335547  0.31903234     1.06300
O187        O  0.33336725  0.85624669  0.29067878    -0.74200
O188        O  0.23802718  0.93311796  0.30624330    -0.74300
C189        C  0.19674060  0.97197380  0.31898196     1.06300
Cr190      Cr  0.14486972  0.89717576  0.24999262     1.93700
Cr191      Cr  0.10258151  0.74664938  0.25000469     1.93200
Cr192      Cr  0.25330283  0.85511242  0.25001332     1.39100
O193        O  0.16691887  0.83296226  0.21162928    -1.19400
C194        C  0.00533508  0.57622915  0.50351345     0.83900
N195        N  0.42964830  0.00518179  0.50389362    -0.74400
C196        C  0.42359876  0.92887808  0.50348948     0.86400
N197        N  0.49464494  0.92430842  0.50363950    -0.74300
C198        C  0.07104717  0.99465010  0.50329240     0.86400
N199        N  0.07568849  0.57024812  0.50369440    -0.76100
N200        N  0.14638856  0.98936519  0.50412453     0.00200
C201        C  0.19750047  0.99709994  0.46542549     0.02800
C202        C  0.26350763  0.98931236  0.48107469    -0.20100
C203        C  0.25529948  0.47745957  0.53130457    -0.20300
C204        C  0.18313054  0.47640191  0.54441310     0.02700
H205        H  0.31140985  0.99123256  0.45726719     0.16500
H206        H  0.29778576  0.47153793  0.55619372     0.16500
N207        N  0.51067037  0.65684547  0.50425943     0.00200
C208        C  0.52355488  0.70668355  0.54447039     0.02800
C209        C  0.52238711  0.77762751  0.53122681    -0.20100
C210        C  0.01051631  0.77375943  0.48100036    -0.20300
C211        C  0.00285161  0.69998799  0.46548110     0.02700
H212        H  0.52817968  0.82604903  0.55602810     0.16500
H213        H  0.00842358  0.81956077  0.45714895     0.16500
N214        N  0.34289902  0.85354455  0.50425362     0.00200
C215        C  0.29295578  0.81666804  0.54446065     0.02800
C216        C  0.22193705  0.74445601  0.53122919    -0.20100
C217        C  0.22587258  0.73636162  0.48100984    -0.20300
C218        C  0.29976931  0.80246840  0.46549452     0.02700
H219        H  0.17343717  0.70182652  0.55605027     0.16500
H220        H  0.18005519  0.68843997  0.45712199     0.16500
C221        C  0.00064057  0.69816464  0.36930095    -0.09600
C222        C  0.99431916  0.68203942  0.41320002    -0.11100
C223        C  0.18828960  0.00556157  0.41310914    -0.09600
C224        C  0.19829205  0.99917060  0.36924376    -0.11100
C225        C  0.31783571  0.81178393  0.41322681    -0.09600
C226        C  0.30173244  0.80185290  0.36932596    -0.11100
C227        C  0.97095343  0.80187648  0.14039309    -0.09600
C228        C  0.96654734  0.80758250  0.09590296    -0.11100
C229        C  0.19787381  0.66828560  0.14038726    -0.09600
C230        C  0.19222130  0.65829525  0.09588424    -0.11100
C231        C  0.33177174  0.02867017  0.14031221    -0.09600
C232        C  0.34158126  0.03300857  0.09579799    -0.11100
C233        C  0.52893919  0.69769583  0.64039529    -0.09600
C234        C  0.53334632  0.69198916  0.59590554    -0.11100
C235        C  0.30160358  0.50039801  0.86924555    -0.09600
C236        C  0.31160503  0.49400795  0.91311164    -0.11100
C237        C  0.49926004  0.80140963  0.86930084    -0.09600
C238        C  0.50558220  0.81753692  0.91319933    -0.11100
C239        C  0.16812591  0.47090696  0.64031131    -0.09600
C240        C  0.15831864  0.46656968  0.59579671    -0.11100
C241        C  0.30767220  0.84128292  0.59588290    -0.09600
C242        C  0.30201915  0.83129195  0.64038590    -0.11100
C243        C  0.19816908  0.69771631  0.86932425    -0.09600
C244        C  0.18206608  0.68778558  0.91322499    -0.11100
O245        O  0.93311982  0.19570208  0.80624633    -0.81700
O246        O  0.85607741  0.02346432  0.79061556    -0.78700
C247        C  0.80315643  0.02759689  0.81898344     1.01800
O248        O  0.76186948  0.06645255  0.80624288    -0.78700
O249        O  0.66653079  0.14332537  0.79067683    -0.81400
C250        C  0.72371311  0.19621517  0.81903071     1.06300
O251        O  0.80394261  0.23752839  0.80625520    -0.74100
O252        O  0.97636220  0.33295314  0.79066558    -0.74300
C253        C  0.97209621  0.27585728  0.81901751     1.06300
O254        O  0.95257633  0.12762252  0.70938149    -0.81700
O255        O  0.77613438  0.01588375  0.70017275    -0.78700
C256        C  0.70517451  0.00807206  0.68713518     1.01800
O257        O  0.67419654  0.04699726  0.70935846    -0.78800
O258        O  0.73892169  0.22327393  0.70021503    -0.81400
C259        C  0.80214234  0.29421319  0.68718496     1.06300
O260        O  0.87215499  0.32519638  0.70939113    -0.74200
O261        O  0.98389319  0.26068469  0.70018126    -0.74300
C262        C  0.99164553  0.19756266  0.68716925     1.06300
Cr263      Cr  0.85502736  0.10239774  0.74999446     1.93700
Cr264      Cr  0.74659339  0.14446036  0.75001210     1.93200
Cr265      Cr  0.89731543  0.25292325  0.75000395     1.39100
O266        O  0.83297640  0.16661133  0.71162923    -1.19400
C267        C  0.99456231  0.42334481  0.00351026     0.83900
N268        N  0.57024900  0.99439209  0.00388949    -0.74400
C269        C  0.57629852  0.07069583  0.00348890     0.86400
N270        N  0.50525237  0.07526544  0.00364320    -0.74300
C271        C  0.92885016  0.50492385  0.00329625     0.86400
N272        N  0.92420881  0.42932573  0.00369487    -0.76100
N273        N  0.85350887  0.01020910  0.00412716     0.00200
C274        C  0.80239584  0.00247323  0.96542705     0.02800
C275        C  0.73639078  0.01026446  0.98107361    -0.20100
C276        C  0.74460145  0.52212045  0.03130308    -0.20300
C277        C  0.81676952  0.52317618  0.04441393     0.02700
H278        H  0.68848852  0.00834499  0.95726473     0.16500
H279        H  0.70211732  0.52804580  0.05619058     0.16500
N280        N  0.65699833  0.14602931  0.00425320     0.00200
C281        C  0.70693930  0.18290828  0.04446135     0.02800
C282        C  0.77795873  0.25511951  0.03122989    -0.20100
C283        C  0.77402603  0.26321086  0.98100960    -0.20300
C284        C  0.70013025  0.19710302  0.96549346     0.02700
H285        H  0.82645733  0.29775030  0.05605146     0.16500
H286        H  0.81984463  0.31113151  0.95712180     0.16500
N287        N  0.48922733  0.34272877  0.00425721     0.00200
C288        C  0.47634172  0.29288965  0.04446888     0.02800
C289        C  0.47751288  0.22194746  0.03122762    -0.20100
C290        C  0.98938623  0.22581736  0.98100174    -0.20300
C291        C  0.99704947  0.29958825  0.96548064     0.02700
H292        H  0.47172129  0.17352609  0.05603007     0.16500
H293        H  0.99148169  0.18001783  0.95715165     0.16500
O294        O  0.72376178  0.48369058  0.20017075    -0.81700
O295        O  0.54731939  0.37195108  0.20937845    -0.78700
C296        C  0.50824868  0.30201046  0.18716771     1.01800
O297        O  0.51600129  0.23888843  0.20018152    -0.78700
O298        O  0.62774032  0.17437743  0.20939246    -0.81400
C299        C  0.69775202  0.20536192  0.18718641     1.06300
O300        O  0.76097314  0.27630068  0.20021682    -0.74100
O301        O  0.82569946  0.45257683  0.20936022    -0.74300
C302        C  0.79472188  0.49150290  0.18713533     1.06300
O303        O  0.64382088  0.47610860  0.29061208    -0.81700
O304        O  0.56677894  0.30387088  0.30624473    -0.78700
C305        C  0.52780325  0.22371589  0.31901745     1.01800
O306        O  0.52353661  0.16661964  0.29066717    -0.78800
O307        O  0.69595643  0.26204242  0.30625644    -0.81400
C308        C  0.77618634  0.30335545  0.31903231     1.06300
O309        O  0.83336728  0.35624664  0.29067875    -0.74200
O310        O  0.73802721  0.43311792  0.30624329    -0.74300
C311        C  0.69674064  0.47197379  0.31898195     1.06300
Cr312      Cr  0.64486981  0.39717581  0.24999259     1.93700
Cr313      Cr  0.60258153  0.24664940  0.25000468     1.93200
Cr314      Cr  0.75330285  0.35511238  0.25001329     1.39100
O315        O  0.66691891  0.33296227  0.21162925    -1.19400
C316        C  0.50533501  0.07622923  0.50351349     0.83900
N317        N  0.92964834  0.50518173  0.50389357    -0.74400
C318        C  0.92359877  0.42887801  0.50348946     0.86400
N319        N  0.99464493  0.42430831  0.50363951    -0.74300
C320        C  0.57104711  0.49465009  0.50329242     0.86400
N321        N  0.57568844  0.07024823  0.50369442    -0.76100
N322        N  0.64638845  0.48936513  0.50412454     0.00200
C323        C  0.69750032  0.49709979  0.46542549     0.02800
C324        C  0.76350742  0.48931213  0.48107468    -0.20100
C325        C  0.75529950  0.97745975  0.53130451    -0.20300
C326        C  0.68313056  0.97640205  0.54441307     0.02700
H327        H  0.81140966  0.49123227  0.45726716     0.16500
H328        H  0.79778580  0.97153804  0.55619366     0.16500
N329        N  0.01067038  0.15684543  0.50425946     0.00200
C330        C  0.02355487  0.20668349  0.54447042     0.02800
C331        C  0.02238717  0.27762750  0.53122687    -0.20100
C332        C  0.51051642  0.27375961  0.48100041    -0.20300
C333        C  0.50285167  0.19998815  0.46548114     0.02700
H334        H  0.02817975  0.32604897  0.55602814     0.16500
H335        H  0.50842387  0.31956104  0.45714899     0.16500
N336        N  0.84289900  0.35354451  0.50425359     0.00200
C337        C  0.79295574  0.31666802  0.54446063     0.02800
C338        C  0.72193697  0.24445604  0.53122914    -0.20100
C339        C  0.72587247  0.23636163  0.48100979    -0.20300
C340        C  0.79976926  0.30246839  0.46549449     0.02700
H341        H  0.67343706  0.20182657  0.55605023     0.16500
H342        H  0.68005511  0.18844007  0.45712196     0.16500
C343        C  0.50064071  0.19816480  0.36930098    -0.09600
C344        C  0.49431932  0.18203962  0.41320005    -0.11100
C345        C  0.68828948  0.50556146  0.41310913    -0.09600
C346        C  0.69829202  0.49917052  0.36924375    -0.11100
C347        C  0.81783570  0.31178394  0.41322678    -0.09600
C348        C  0.80173247  0.30185290  0.36932594    -0.11100
C349        C  0.47095353  0.30187661  0.14039306    -0.09600
C350        C  0.46654743  0.30758264  0.09590293    -0.11100
C351        C  0.69787376  0.16828541  0.14038726    -0.09600
C352        C  0.69222123  0.15829498  0.09588424    -0.11100
C353        C  0.83177196  0.52867031  0.14031225    -0.09600
C354        C  0.84158151  0.53300874  0.09579804    -0.11100
C355        C  0.02893918  0.19769577  0.64039532    -0.09600
C356        C  0.03334629  0.19198908  0.59590558    -0.11100
C357        C  0.80160361  0.00039799  0.86924553    -0.09600
C358        C  0.81160506  0.99400797  0.91311163    -0.11100
C359        C  0.99926000  0.30140957  0.86930085    -0.09600
C360        C  0.00558222  0.31753691  0.91319934    -0.11100
C361        C  0.66812594  0.97090692  0.64031127    -0.09600
C362        C  0.65831865  0.96656971  0.59579668    -0.11100
C363        C  0.80767218  0.34128285  0.59588288    -0.09600
C364        C  0.80201914  0.33129187  0.64038589    -0.11100
C365        C  0.69816893  0.19771628  0.86932424    -0.09600
C366        C  0.68206593  0.18778559  0.91322499    -0.11100
O367        O  0.93311990  0.69570216  0.80624632    -0.81700
O368        O  0.85607744  0.52346440  0.79061558    -0.78700
C369        C  0.80315647  0.52759698  0.81898347     1.01800
O370        O  0.76186954  0.56645267  0.80624291    -0.78700
O371        O  0.66653085  0.64332551  0.79067680    -0.81400
C372        C  0.72371319  0.69621527  0.81903068     1.06300
O373        O  0.80394269  0.73752846  0.80625518    -0.74100
O374        O  0.97636227  0.83295322  0.79066557    -0.74300
C375        C  0.97209629  0.77585735  0.81901750     1.06300
O376        O  0.95257639  0.62762261  0.70938147    -0.81700
O377        O  0.77613443  0.51588382  0.70017276    -0.78700
C378        C  0.70517454  0.50807211  0.68713521     1.01800
O379        O  0.67419657  0.54699730  0.70935849    -0.78800
O380        O  0.73892170  0.72327395  0.70021500    -0.81400
C381        C  0.80214233  0.79421323  0.68718495     1.06300
O382        O  0.87215498  0.82519644  0.70939112    -0.74200
O383        O  0.98389323  0.76068477  0.70018121    -0.74300
C384        C  0.99164557  0.69756273  0.68716921     1.06300
Cr385      Cr  0.85502741  0.60239782  0.74999446     1.93700
Cr386      Cr  0.74659344  0.64446045  0.75001210     1.93200
Cr387      Cr  0.89731549  0.75292334  0.75000393     1.39100
O388        O  0.83297645  0.66661140  0.71162923    -1.19400
C389        C  0.99456216  0.92334471  0.00351026     0.83900
N390        N  0.57024904  0.49439225  0.00388944    -0.74400
C391        C  0.57629851  0.57069596  0.00348889     0.86400
N392        N  0.50525233  0.57526551  0.00364325    -0.74300
C393        C  0.92885002  0.00492377  0.00329624     0.86400
N394        N  0.92420867  0.92932565  0.00369489    -0.76100
N395        N  0.85350902  0.51020918  0.00412718     0.00200
C396        C  0.80239594  0.50247325  0.96542707     0.02800
C397        C  0.73639095  0.51026455  0.98107365    -0.20100
C398        C  0.74460120  0.02212023  0.03130308    -0.20300
C399        C  0.81676932  0.02317600  0.04441393     0.02700
H400        H  0.68848862  0.50834508  0.95726475     0.16500
H401        H  0.70211708  0.02804545  0.05619057     0.16500
N402        N  0.65699831  0.64602949  0.00425318     0.00200
C403        C  0.70693925  0.68290853  0.04446132     0.02800
C404        C  0.77795876  0.75511970  0.03122984    -0.20100
C405        C  0.77402615  0.76321094  0.98100951    -0.20300
C406        C  0.70013030  0.69710310  0.96549341     0.02700
H407        H  0.82645734  0.79775042  0.05605139     0.16500
H408        H  0.81984476  0.81113139  0.95712172     0.16500
N409        N  0.48922724  0.84272863  0.00425724     0.00200
C410        C  0.47634165  0.79288951  0.04446890     0.02800
C411        C  0.47751289  0.72194734  0.03122764    -0.20100
C412        C  0.98938637  0.72581738  0.98100174    -0.20300
C413        C  0.99704945  0.79958821  0.96548064     0.02700
H414        H  0.47172140  0.67352607  0.05603007     0.16500
H415        H  0.99148200  0.68001797  0.95715166     0.16500
O416        O  0.72376176  0.98369053  0.20017076    -0.81700
O417        O  0.54731938  0.87195103  0.20937847    -0.78700
C418        C  0.50824868  0.80201041  0.18716773     1.01800
O419        O  0.51600131  0.73888840  0.20018153    -0.78700
O420        O  0.62774034  0.67437744  0.20939247    -0.81400
C421        C  0.69775203  0.70536197  0.18718642     1.06300
O422        O  0.76097315  0.77630071  0.20021686    -0.74100
O423        O  0.82569947  0.95257682  0.20936024    -0.74300
C424        C  0.79472185  0.99150285  0.18713534     1.06300
O425        O  0.64382088  0.97610858  0.29061209    -0.81700
O426        O  0.56677898  0.80387084  0.30624476    -0.78700
C427        C  0.52780327  0.72371583  0.31901746     1.01800
O428        O  0.52353660  0.66661959  0.29066716    -0.78800
O429        O  0.69595642  0.76204237  0.30625646    -0.81400
C430        C  0.77618632  0.80335540  0.31903234     1.06300
O431        O  0.83336727  0.85624662  0.29067879    -0.74200
O432        O  0.73802725  0.93311795  0.30624331    -0.74300
C433        C  0.69674068  0.97197382  0.31898195     1.06300
Cr434      Cr  0.64486981  0.89717578  0.24999262     1.93700
Cr435      Cr  0.60258153  0.74664937  0.25000469     1.93200
Cr436      Cr  0.75330286  0.85511238  0.25001333     1.39100
O437        O  0.66691892  0.83296226  0.21162928    -1.19400
C438        C  0.50533504  0.57622919  0.50351350     0.83900
N439        N  0.92964832  0.00518173  0.50389363    -0.74400
C440        C  0.92359876  0.92887800  0.50348949     0.86400
N441        N  0.99464493  0.92430832  0.50363953    -0.74300
C442        C  0.57104717  0.99465021  0.50329239     0.86400
N443        N  0.57568844  0.57024814  0.50369444    -0.76100
N444        N  0.64638855  0.98936530  0.50412451     0.00200
C445        C  0.69750045  0.99710001  0.46542547     0.02800
C446        C  0.76350758  0.98931237  0.48107465    -0.20100
C447        C  0.75529938  0.47745954  0.53130453    -0.20300
C448        C  0.68313047  0.47640190  0.54441310     0.02700
H449        H  0.81140979  0.99123253  0.45726716     0.16500
H450        H  0.79778571  0.47153787  0.55619368     0.16500
N451        N  0.01067040  0.65684542  0.50425939     0.00200
C452        C  0.02355496  0.70668352  0.54447035     0.02800
C453        C  0.02238710  0.77762744  0.53122679    -0.20100
C454        C  0.51051647  0.77375956  0.48100037    -0.20300
C455        C  0.50285174  0.69998810  0.46548112     0.02700
H456        H  0.02817967  0.82604896  0.55602809     0.16500
H457        H  0.50842387  0.81956096  0.45714895     0.16500
N458        N  0.84289898  0.85354450  0.50425363     0.00200
C459        C  0.79295570  0.81666803  0.54446065     0.02800
C460        C  0.72193691  0.74445604  0.53122918    -0.20100
C461        C  0.72587245  0.73636163  0.48100983    -0.20300
C462        C  0.79976925  0.80246836  0.46549452     0.02700
H463        H  0.67343703  0.70182662  0.55605024     0.16500
H464        H  0.68005505  0.68844005  0.45712199     0.16500
C465        C  0.50064076  0.69816471  0.36930097    -0.09600
C466        C  0.49431937  0.68203952  0.41320004    -0.11100
C467        C  0.68828958  0.00556163  0.41310911    -0.09600
C468        C  0.69829209  0.99917063  0.36924374    -0.11100
C469        C  0.81783568  0.81178386  0.41322681    -0.09600
C470        C  0.80173244  0.80185282  0.36932596    -0.11100
C471        C  0.47095352  0.80187654  0.14039308    -0.09600
C472        C  0.46654738  0.80758251  0.09590295    -0.11100
C473        C  0.69787374  0.66828559  0.14038722    -0.09600
C474        C  0.69222118  0.65829525  0.09588421    -0.11100
C475        C  0.83177187  0.02867019  0.14031224    -0.09600
C476        C  0.84158133  0.03300857  0.09579803    -0.11100
C477        C  0.02893923  0.69769584  0.64039527    -0.09600
C478        C  0.03334640  0.69198915  0.59590552    -0.11100
C479        C  0.80160361  0.50039802  0.86924555    -0.09600
C480        C  0.81160509  0.49400794  0.91311165    -0.11100
C481        C  0.99926008  0.80140963  0.86930085    -0.09600
C482        C  0.00558226  0.81753692  0.91319935    -0.11100
C483        C  0.66812596  0.47090695  0.64031131    -0.09600
C484        C  0.65831863  0.46656967  0.59579671    -0.11100
C485        C  0.80767212  0.84128291  0.59588290    -0.09600
C486        C  0.80201910  0.83129193  0.64038590    -0.11100
C487        C  0.69816901  0.69771633  0.86932421    -0.09600
C488        C  0.68206599  0.68778560  0.91322495    -0.11100
loop_ 
_geom_bond_atom_site_label_1 
_geom_bond_atom_site_label_2 
_geom_bond_distance 
_geom_bond_site_symmetry_2 
_ccdc_geom_bond_type 
O1          Cr19   2.204       .  S
O1            C9   1.330       .  A
O2          Cr19   1.832       .  S
O2            C3   1.273       .  A
C3            O4   1.330       .  A
C3          C113   1.437       .  S
O4          Cr20   2.204       .  S
O5          Cr20   1.832       .  S
O5            C6   1.273       .  A
C6            O7   1.330       .  A
C6          C121   1.437       .  S
O7          Cr21   2.204       .  S
O8          Cr21   1.832       .  S
O8            C9   1.273       .  A
C9          C115   1.437       .  S
O10         Cr19   1.955       .  S
O10          C18   1.272       .  A
O11         Cr19   2.036       .  S
O11          C12   1.295       .  A
C12          O13   1.272       .  A
C12         C117   1.433   1_545  S
O13         Cr20   1.955       .  S
O14         Cr20   2.037       .  S
O14          C15   1.295       .  A
C15          O16   1.272       .  A
C15         C120   1.434       .  S
O16         Cr21   1.955       .  S
O17         Cr21   2.037       .  S
O17          C18   1.295       .  A
C18         C111   1.433       .  S
Cr19         O22   1.769       .  S
Cr20         O22   1.769       .  S
Cr21         O22   1.769       .  S
C23          N28   1.360       .  A
C23         N390   1.359       .  A
C23         N287   1.446       .  S
N24          C25   1.360   1_565  A
N24         C389   1.359   1_455  A
C25          N26   1.359       .  A
C25          N36   1.445       .  S
N26         C393   1.360   1_455  A
C27          N28   1.359       .  A
C27         N392   1.360       .  A
C27         N151   1.445       .  S
N29          C30   1.364   1_554  A
N29         C155   1.362       .  A
N29         C149   1.445       .  S
C30         C114   1.434   1_545  S
C30          C31   1.366       .  A
C31         C154   1.364   1_556  A
C31          H34   1.079       .  S
C32          C33   1.371       .  A
C32         C153   1.364   1_554  A
C32          H35   1.079       .  S
C33         C110   1.438       .  S
C33         N151   1.362       .  A
N36          C40   1.364   1_554  A
N36          C37   1.362       .  A
C37         C108   1.438       .  S
C37          C38   1.371       .  A
C38          C39   1.364   1_554  A
C38          H41   1.079       .  S
C39          C40   1.366       .  A
C39          H42   1.079       .  S
C40         C122   1.434       .  S
N43          C44   1.362       .  A
N43         C291   1.364   1_554  A
N43         C267   1.446       .  S
C44         C106   1.438       .  S
C44          C45   1.372       .  A
C45         C290   1.364   1_554  A
C45          H48   1.079       .  S
C46          C47   1.366       .  A
C46         C289   1.364   1_556  A
C46          H49   1.079       .  S
C47         C116   1.434       .  S
C47         N287   1.364   1_556  A
O50         Cr68   2.036       .  S
O50          C58   1.295       .  A
O51         Cr68   1.955       .  S
O51          C52   1.272       .  A
C52          O53   1.295       .  A
C52         C105   1.433   1_455  S
O53         Cr69   2.037       .  S
O54         Cr69   1.955       .  S
O54          C55   1.272       .  A
C55          O56   1.295       .  A
C55         C107   1.434       .  S
O56         Cr70   2.037       .  S
O57         Cr70   1.955       .  S
O57          C58   1.272       .  A
C58         C109   1.433       .  S
O59         Cr68   1.832       .  S
O59          C67   1.273       .  A
O60         Cr68   2.204       .  S
O60          C61   1.330       .  A
C61          O62   1.273       .  A
C61          C99   1.437       .  S
O62         Cr69   1.832       .  S
O63         Cr69   2.204       .  S
O63          C64   1.330       .  A
C64          O65   1.273       .  A
C64         C104   1.437       .  S
O65         Cr70   1.832       .  S
O66         Cr70   2.204       .  S
O66          C67   1.330       .  A
C67         C102   1.437       .  S
Cr68         O71   1.769       .  S
Cr69         O71   1.769       .  S
Cr70         O71   1.769       .  S
C72          N77   1.360       .  A
C72         N439   1.359   1_455  A
C72         N329   1.446       .  S
N73          C74   1.360       .  A
N73         C438   1.359       .  A
C74          N75   1.359       .  A
C74          N92   1.445       .  S
N75         C320   1.360       .  A
C76         N319   1.360   1_455  A
C76         N199   1.359       .  A
C76          N78   1.445       .  S
N77         C198   1.359   1_545  A
N78          C79   1.364       .  A
N78         C204   1.362       .  A
C79         C101   1.434       .  S
C79          C80   1.366       .  A
C80         C203   1.364       .  A
C80          H83   1.079       .  S
C81          C82   1.371       .  A
C81         C202   1.364       .  A
C81          H84   1.079       .  S
C82         C118   1.438       .  S
C82         N200   1.362       .  A
N85          C86   1.362       .  A
N85         C333   1.364       .  A
N85         C316   1.446       .  S
C86         C112   1.438       .  S
C86          C87   1.372       .  A
C87         C332   1.364       .  A
C87          H90   1.079       .  S
C88          C89   1.366       .  A
C88         C331   1.364       .  A
C88          H91   1.079       .  S
C89         C100   1.434   1_455  S
C89         N329   1.364       .  A
N92          C96   1.364       .  A
N92          C93   1.362       .  A
C93         C119   1.438       .  S
C93          C94   1.371       .  A
C94          C95   1.364       .  A
C94          H97   1.079       .  S
C95          C96   1.366       .  A
C95          H98   1.079       .  S
C96         C103   1.434       .  S
C99         C100   1.208   1_455  T
C101        C102   1.208       .  T
C103        C104   1.208       .  T
C105        C106   1.207       .  T
C107        C108   1.207       .  T
C109        C110   1.207       .  T
C111        C112   1.207       .  T
C113        C114   1.208   1_545  T
C115        C116   1.208       .  T
C117        C118   1.207       .  T
C119        C120   1.207       .  T
C121        C122   1.208       .  T
O123       Cr141   2.204       .  S
O123        C131   1.330       .  A
O124       Cr141   1.832       .  S
O124        C125   1.273       .  A
C125        O126   1.330       .  A
C125        C235   1.437       .  S
O126       Cr142   2.204       .  S
O127       Cr142   1.832       .  S
O127        C128   1.273       .  A
C128        O129   1.330       .  A
C128        C243   1.437       .  S
O129       Cr143   2.204       .  S
O130       Cr143   1.832       .  S
O130        C131   1.273       .  A
C131        C237   1.437       .  S
O132       Cr141   1.955       .  S
O132        C140   1.272       .  A
O133       Cr141   2.036       .  S
O133        C134   1.295       .  A
C134        O135   1.272       .  A
C134        C239   1.433       .  S
O135       Cr142   1.955       .  S
O136       Cr142   2.037       .  S
O136        C137   1.295       .  A
C137        O138   1.272       .  A
C137        C242   1.434       .  S
O138       Cr143   1.955       .  S
O139       Cr143   2.037       .  S
O139        C140   1.295       .  A
C140        C233   1.433       .  S
Cr141       O144   1.769       .  S
Cr142       O144   1.769       .  S
Cr143       O144   1.769       .  S
C145        N268   1.359       .  A
C145        N150   1.360       .  A
C145        N409   1.446       .  S
N146        C267   1.359   1_455  A
N146        C147   1.360       .  A
C147        N148   1.359       .  A
C147        N158   1.445       .  S
N148        C271   1.360   1_455  A
C149        N270   1.360       .  A
C149        N150   1.359   1_545  A
N151        C152   1.364   1_554  A
C152        C236   1.434       .  S
C152        C153   1.366       .  A
C153        H156   1.079       .  S
C154        C155   1.371       .  A
C154        H157   1.079       .  S
C155        C232   1.438       .  S
N158        C162   1.364   1_554  A
N158        C159   1.362       .  A
C159        C230   1.438       .  S
C159        C160   1.371       .  A
C160        C161   1.364   1_554  A
C160        H163   1.079       .  S
C161        C162   1.366       .  A
C161        H164   1.079       .  S
C162        C244   1.434       .  S
N165        C413   1.364   1_554  A
N165        C166   1.362       .  A
N165        C389   1.446       .  S
C166        C228   1.438       .  S
C166        C167   1.372       .  A
C167        C412   1.364   1_554  A
C167        H170   1.079       .  S
C168        C411   1.364   1_556  A
C168        C169   1.366       .  A
C168        H171   1.079       .  S
C169        C238   1.434       .  S
C169        N409   1.364   1_556  A
O172       Cr190   2.036       .  S
O172        C180   1.295       .  A
O173       Cr190   1.955       .  S
O173        C174   1.272       .  A
C174        O175   1.295       .  A
C174        C227   1.433   1_455  S
O175       Cr191   2.037       .  S
O176       Cr191   1.955       .  S
O176        C177   1.272       .  A
C177        O178   1.295       .  A
C177        C229   1.434       .  S
O178       Cr192   2.037       .  S
O179       Cr192   1.955       .  S
O179        C180   1.272       .  A
C180        C231   1.433   1_565  S
O181       Cr190   1.832       .  S
O181        C189   1.273       .  A
O182       Cr190   2.204       .  S
O182        C183   1.330       .  A
C183        O184   1.273       .  A
C183        C221   1.437       .  S
O184       Cr191   1.832       .  S
O185       Cr191   2.204       .  S
O185        C186   1.330       .  A
C186        O187   1.273       .  A
C186        C226   1.437       .  S
O187       Cr192   1.832       .  S
O188       Cr192   2.204       .  S
O188        C189   1.330       .  A
C189        C224   1.437       .  S
Cr190       O193   1.769       .  S
Cr191       O193   1.769       .  S
Cr192       O193   1.769       .  S
C194        N317   1.359   1_455  A
C194        N199   1.360       .  A
C194        N451   1.446       .  S
N195        C316   1.359       .  A
N195        C196   1.360   1_545  A
C196        N197   1.359       .  A
C196        N214   1.445       .  S
N197        C442   1.360       .  A
C198        N441   1.360   1_455  A
C198        N200   1.445       .  S
N200        C201   1.364       .  A
C201        C223   1.434   1_565  S
C201        C202   1.366       .  A
C202        H205   1.079       .  S
C203        C204   1.371       .  A
C203        H206   1.079       .  S
C204        C240   1.438       .  S
N207        C455   1.364       .  A
N207        C208   1.362       .  A
N207        C438   1.446       .  S
C208        C234   1.438       .  S
C208        C209   1.372       .  A
C209        C454   1.364       .  A
C209        H212   1.079       .  S
C210        C453   1.364       .  A
C210        C211   1.366       .  A
C210        H213   1.079       .  S
C211        C222   1.434   1_455  S
C211        N451   1.364       .  A
N214        C218   1.364       .  A
N214        C215   1.362       .  A
C215        C241   1.438       .  S
C215        C216   1.371       .  A
C216        C217   1.364       .  A
C216        H219   1.079       .  S
C217        C218   1.366       .  A
C217        H220   1.079       .  S
C218        C225   1.434       .  S
C221        C222   1.208   1_455  T
C223        C224   1.208   1_545  T
C225        C226   1.208       .  T
C227        C228   1.207       .  T
C229        C230   1.207       .  T
C231        C232   1.207       .  T
C233        C234   1.207       .  T
C235        C236   1.208       .  T
C237        C238   1.208       .  T
C239        C240   1.207       .  T
C241        C242   1.207       .  T
C243        C244   1.208       .  T
O245       Cr263   2.204       .  S
O245        C253   1.330       .  A
O246       Cr263   1.832       .  S
O246        C247   1.273       .  A
C247        O248   1.330       .  A
C247        C357   1.437       .  S
O248       Cr264   2.204       .  S
O249       Cr264   1.832       .  S
O249        C250   1.273       .  A
C250        O251   1.330       .  A
C250        C365   1.437       .  S
O251       Cr265   2.204       .  S
O252       Cr265   1.832       .  S
O252        C253   1.273       .  A
C253        C359   1.437       .  S
O254       Cr263   1.955       .  S
O254        C262   1.272       .  A
O255       Cr263   2.036       .  S
O255        C256   1.295       .  A
C256        O257   1.272       .  A
C256        C361   1.433   1_545  S
O257       Cr264   1.955       .  S
O258       Cr264   2.037       .  S
O258        C259   1.295       .  A
C259        O260   1.272       .  A
C259        C364   1.434       .  S
O260       Cr265   1.955       .  S
O261       Cr265   2.037       .  S
O261        C262   1.295       .  A
C262        C355   1.433   1_655  S
Cr263       O266   1.769       .  S
Cr264       O266   1.769       .  S
Cr265       O266   1.769       .  S
C267        N272   1.360       .  A
N268        C269   1.360   1_565  A
C269        N270   1.359       .  A
C269        N280   1.445       .  S
C271        N272   1.359       .  A
C271        N395   1.445       .  S
N273        C399   1.362       .  A
N273        C274   1.364   1_554  A
N273        C393   1.445       .  S
C274        C358   1.434   1_545  S
C274        C275   1.366       .  A
C275        C398   1.364   1_556  A
C275        H278   1.079       .  S
C276        C397   1.364   1_554  A
C276        C277   1.371       .  A
C276        H279   1.079       .  S
C277        C354   1.438       .  S
C277        N395   1.362       .  A
N280        C284   1.364   1_554  A
N280        C281   1.362       .  A
C281        C352   1.438       .  S
C281        C282   1.371       .  A
C282        C283   1.364   1_554  A
C282        H285   1.079       .  S
C283        C284   1.366       .  A
C283        H286   1.079       .  S
C284        C366   1.434       .  S
N287        C288   1.362       .  A
C288        C350   1.438       .  S
C288        C289   1.372       .  A
C289        H292   1.079       .  S
C290        C291   1.366       .  A
C290        H293   1.079       .  S
C291        C360   1.434   1_655  S
O294       Cr312   2.036       .  S
O294        C302   1.295       .  A
O295       Cr312   1.955       .  S
O295        C296   1.272       .  A
C296        O297   1.295       .  A
C296        C349   1.433       .  S
O297       Cr313   2.037       .  S
O298       Cr313   1.955       .  S
O298        C299   1.272       .  A
C299        O300   1.295       .  A
C299        C351   1.434       .  S
O300       Cr314   2.037       .  S
O301       Cr314   1.955       .  S
O301        C302   1.272       .  A
C302        C353   1.433       .  S
O303       Cr312   1.832       .  S
O303        C311   1.273       .  A
O304       Cr312   2.204       .  S
O304        C305   1.330       .  A
C305        O306   1.273       .  A
C305        C343   1.437       .  S
O306       Cr313   1.832       .  S
O307       Cr313   2.204       .  S
O307        C308   1.330       .  A
C308        O309   1.273       .  A
C308        C348   1.437       .  S
O309       Cr314   1.832       .  S
O310       Cr314   2.204       .  S
O310        C311   1.330       .  A
C311        C346   1.437       .  S
Cr312       O315   1.769       .  S
Cr313       O315   1.769       .  S
Cr314       O315   1.769       .  S
C316        N321   1.360       .  A
N317        C318   1.360       .  A
C318        N319   1.359       .  A
C318        N336   1.445       .  S
C320        N443   1.359       .  A
C320        N322   1.445       .  S
N321        C442   1.359   1_545  A
N322        C448   1.362       .  A
N322        C323   1.364       .  A
C323        C345   1.434       .  S
C323        C324   1.366       .  A
C324        C447   1.364       .  A
C324        H327   1.079       .  S
C325        C446   1.364       .  A
C325        C326   1.371       .  A
C325        H328   1.079       .  S
C326        C362   1.438       .  S
C326        N444   1.362       .  A
N329        C330   1.362       .  A
C330        C356   1.438       .  S
C330        C331   1.372       .  A
C331        H334   1.079       .  S
C332        C333   1.366       .  A
C332        H335   1.079       .  S
C333        C344   1.434       .  S
N336        C340   1.364       .  A
N336        C337   1.362       .  A
C337        C363   1.438       .  S
C337        C338   1.371       .  A
C338        C339   1.364       .  A
C338        H341   1.079       .  S
C339        C340   1.366       .  A
C339        H342   1.079       .  S
C340        C347   1.434       .  S
C343        C344   1.208       .  T
C345        C346   1.208       .  T
C347        C348   1.208       .  T
C349        C350   1.207       .  T
C351        C352   1.207       .  T
C353        C354   1.207       .  T
C355        C356   1.207       .  T
C357        C358   1.208   1_545  T
C359        C360   1.208   1_655  T
C361        C362   1.207       .  T
C363        C364   1.207       .  T
C365        C366   1.208       .  T
O367       Cr385   2.204       .  S
O367        C375   1.330       .  A
O368       Cr385   1.832       .  S
O368        C369   1.273       .  A
C369        O370   1.330       .  A
C369        C479   1.437       .  S
O370       Cr386   2.204       .  S
O371       Cr386   1.832       .  S
O371        C372   1.273       .  A
C372        O373   1.330       .  A
C372        C487   1.437       .  S
O373       Cr387   2.204       .  S
O374       Cr387   1.832       .  S
O374        C375   1.273       .  A
C375        C481   1.437       .  S
O376       Cr385   1.955       .  S
O376        C384   1.272       .  A
O377       Cr385   2.036       .  S
O377        C378   1.295       .  A
C378        O379   1.272       .  A
C378        C483   1.433       .  S
O379       Cr386   1.955       .  S
O380       Cr386   2.037       .  S
O380        C381   1.295       .  A
C381        O382   1.272       .  A
C381        C486   1.434       .  S
O382       Cr387   1.955       .  S
O383       Cr387   2.037       .  S
O383        C384   1.295       .  A
C384        C477   1.433   1_655  S
Cr385       O388   1.769       .  S
Cr386       O388   1.769       .  S
Cr387       O388   1.769       .  S
C389        N394   1.360       .  A
N390        C391   1.360       .  A
C391        N392   1.359       .  A
C391        N402   1.445       .  S
C393        N394   1.359   1_545  A
N395        C396   1.364   1_554  A
C396        C480   1.434       .  S
C396        C397   1.366       .  A
C397        H400   1.079       .  S
C398        C399   1.371       .  A
C398        H401   1.079       .  S
C399        C476   1.438       .  S
N402        C406   1.364   1_554  A
N402        C403   1.362       .  A
C403        C474   1.438       .  S
C403        C404   1.371       .  A
C404        C405   1.364   1_554  A
C404        H407   1.079       .  S
C405        C406   1.366       .  A
C405        H408   1.079       .  S
C406        C488   1.434       .  S
N409        C410   1.362       .  A
C410        C472   1.438       .  S
C410        C411   1.372       .  A
C411        H414   1.079       .  S
C412        C413   1.366       .  A
C412        H415   1.079       .  S
C413        C482   1.434   1_655  S
O416       Cr434   2.036       .  S
O416        C424   1.295       .  A
O417       Cr434   1.955       .  S
O417        C418   1.272       .  A
C418        O419   1.295       .  A
C418        C471   1.433       .  S
O419       Cr435   2.037       .  S
O420       Cr435   1.955       .  S
O420        C421   1.272       .  A
C421        O422   1.295       .  A
C421        C473   1.434       .  S
O422       Cr436   2.037       .  S
O423       Cr436   1.955       .  S
O423        C424   1.272       .  A
C424        C475   1.433   1_565  S
O425       Cr434   1.832       .  S
O425        C433   1.273       .  A
O426       Cr434   2.204       .  S
O426        C427   1.330       .  A
C427        O428   1.273       .  A
C427        C465   1.437       .  S
O428       Cr435   1.832       .  S
O429       Cr435   2.204       .  S
O429        C430   1.330       .  A
C430        O431   1.273       .  A
C430        C470   1.437       .  S
O431       Cr436   1.832       .  S
O432       Cr436   2.204       .  S
O432        C433   1.330       .  A
C433        C468   1.437       .  S
Cr434       O437   1.769       .  S
Cr435       O437   1.769       .  S
Cr436       O437   1.769       .  S
C438        N443   1.360       .  A
N439        C440   1.360   1_545  A
C440        N441   1.359       .  A
C440        N458   1.445       .  S
C442        N444   1.445       .  S
N444        C445   1.364       .  A
C445        C467   1.434   1_565  S
C445        C446   1.366       .  A
C446        H449   1.079       .  S
C447        C448   1.371       .  A
C447        H450   1.079       .  S
C448        C484   1.438       .  S
N451        C452   1.362       .  A
C452        C478   1.438       .  S
C452        C453   1.372       .  A
C453        H456   1.079       .  S
C454        C455   1.366       .  A
C454        H457   1.079       .  S
C455        C466   1.434       .  S
N458        C462   1.364       .  A
N458        C459   1.362       .  A
C459        C485   1.438       .  S
C459        C460   1.371       .  A
C460        C461   1.364       .  A
C460        H463   1.079       .  S
C461        C462   1.366       .  A
C461        H464   1.079       .  S
C462        C469   1.434       .  S
C465        C466   1.208       .  T
C467        C468   1.208   1_545  T
C469        C470   1.208       .  T
C471        C472   1.207       .  T
C473        C474   1.207       .  T
C475        C476   1.207       .  T
C477        C478   1.207       .  T
C479        C480   1.208       .  T
C481        C482   1.208   1_655  T
C483        C484   1.207       .  T
C485        C486   1.207       .  T
C487        C488   1.208       .  T
