geometry optimzed in LAMMPS
_audit_creation_date              2020-12-01 
_audit_creation_method            'lammps2cif' 
_symmetry_space_group_name_H-M    'P1' 
_symmetry_Int_Tables_number       1 
_symmetry_cell_setting            triclinic 
loop_ 
_symmetry_equiv_pos_as_xyz 
  x,y,z 
_cell_length_a                    39.23609842 
_cell_length_b                    40.835360307489786 
_cell_length_c                    41.21231780691943 
_cell_angle_alpha                 89.28230608377773 
_cell_angle_beta                  90.57705058976528 
_cell_angle_gamma                 122.61377774135575 
loop_ 
_atom_site_label 
_atom_site_type_symbol 
_atom_site_fract_x 
_atom_site_fract_y 
_atom_site_fract_z 
_atom_site_charge 
O1          O  0.40805030  0.18476700  0.77994385    -0.85200
O2          O  0.33697808  0.11973430  0.79546110    -0.82200
C3          C  0.29953726  0.09917256  0.80048751     0.98300
O4          O  0.27490706  0.09574094  0.77859229    -0.82200
O5          O  0.27925945  0.16330516  0.79031019    -0.84900
C6          C  0.29676719  0.19952214  0.79329089     1.02800
O7          O  0.31957541  0.22188466  0.77082517    -0.77600
O8          O  0.38434342  0.22087070  0.79186188    -0.77800
C9          C  0.40436249  0.20619650  0.79975295     1.02800
O10         O  0.38875149  0.16450581  0.71138664    -0.85200
O11         O  0.32069550  0.09530606  0.72814736    -0.82200
C12         C  0.29604655  0.09314295  0.70677064     0.98300
O13         O  0.28022985  0.11283023  0.70953580    -0.82300
O14         O  0.27745983  0.17681832  0.72066892    -0.84900
C15         C  0.30275901  0.19907158  0.69926420     1.02800
O16         O  0.34018712  0.21569857  0.70466682    -0.77700
O17         O  0.41087785  0.22410564  0.72577182    -0.77800
C18         C  0.41134317  0.20054176  0.70631683     1.02800
Cr19       Cr  0.36180079  0.14255038  0.75340663     1.93700
Cr20       Cr  0.28146955  0.13897006  0.74977077     1.93200
Cr21       Cr  0.36211902  0.21740951  0.74832460     1.39100
O22         O  0.33506943  0.16617438  0.75034885    -1.22900
C23         C  0.98407826  0.45718915  0.99000519     0.03300
C24         C  0.02455678  0.99603812  0.99519873    -0.12800
C25         C  0.03204020  0.03410759  0.99375005     0.00800
C26         C  0.99841712  0.03797278  0.99147463    -0.11400
C27         C  0.45875928  0.00533367  0.99179397     0.03300
C28         C  0.45117173  0.46213379  0.98929586    -0.10800
H29         H  0.04983242  0.99261024  0.99651959     0.08900
H30         H  0.00255398  0.06622179  0.98839665     0.06400
H31         H  0.42043985  0.43725941  0.99077670     0.06300
N32         N  0.27356556  0.03177546  0.01145147    -0.03300
C33         C  0.25606977  0.04084135  0.98734016    -0.00700
C34         C  0.22044930  0.03620172  0.99811515    -0.23600
C35         C  0.21443279  0.51742567  0.02792578    -0.23800
C36         C  0.24775295  0.51548805  0.03557314    -0.00800
H37         H  0.19995507  0.04118488  0.98440126     0.13000
H38         H  0.18909730  0.50985749  0.04347583     0.13000
N39         N  0.24117900  0.24150887  0.99745597    -0.03300
C40         C  0.25977006  0.26742508  0.02226448    -0.00700
C41         C  0.29797138  0.29704743  0.01274826    -0.23600
C42         C  0.30295109  0.29002770  0.98149515    -0.23800
C43         C  0.26808847  0.25553714  0.97219180    -0.00800
H44         H  0.32037977  0.32156606  0.02687636     0.13000
H45         H  0.32947656  0.30923552  0.96718474     0.13000
N46         N  0.96738834  0.25373515  0.01068023    -0.03300
C47         C  0.97356154  0.23744088  0.03735870    -0.00700
C48         C  0.95647120  0.19800815  0.03262023    -0.23600
C49         C  0.43974244  0.18964238  0.00220087    -0.23800
C50         C  0.44687057  0.22405098  0.98926504    -0.00800
H51         H  0.95653829  0.17745551  0.04942141     0.13000
H52         H  0.42472136  0.16162607  0.99044592     0.13000
O53         O  0.09736299  0.31308203  0.27580771    -0.85200
O54         O  0.16606339  0.38004392  0.29448281    -0.82200
C55         C  0.20328095  0.40330979  0.29965608     0.98300
O56         O  0.22911600  0.40688032  0.27927645    -0.82200
O57         O  0.22842916  0.34035708  0.29025483    -0.84900
C58         C  0.21458746  0.30448271  0.29199292     1.02800
O59         O  0.19128151  0.28218105  0.26994107    -0.77600
O60         O  0.12341336  0.27931082  0.29023609    -0.77800
C61         C  0.10017947  0.29095007  0.29602817     1.02800
O62         O  0.11879136  0.33722655  0.20858603    -0.85200
O63         O  0.18382252  0.40763292  0.22797434    -0.82200
C64         C  0.21042688  0.41284711  0.20766806     0.98300
O65         O  0.22717983  0.39394703  0.21028875    -0.82300
O66         O  0.23339426  0.33180072  0.22016591    -0.84900
C67         C  0.20883506  0.30859084  0.19888968     1.02800
O68         O  0.17131621  0.28910986  0.20410410    -0.77700
O69         O  0.09946980  0.27784087  0.22295106    -0.77800
C70         C  0.09908421  0.30134905  0.20281356     1.02800
Cr71       Cr  0.14349536  0.35801902  0.25151337     1.93700
Cr72       Cr  0.22589821  0.36614598  0.25003917     1.93200
Cr73       Cr  0.14791908  0.28555968  0.24704716     1.39100
O74         O  0.17256350  0.33672394  0.24929383    -1.22900
C75         C  0.99713059  0.03231978  0.49453332     0.03300
C76         C  0.46423896  0.49841233  0.49595975    -0.12800
C77         C  0.46519325  0.46454404  0.49781425     0.00800
C78         C  0.50258981  0.46773853  0.49619525    -0.11400
C79         C  0.03562947  0.00104100  0.49536338     0.03300
C80         C  0.03429666  0.03478233  0.49340154    -0.10800
H81         H  0.43545915  0.49613307  0.49712550     0.08900
H82         H  0.50345203  0.44168038  0.49745389     0.06400
H83         H  0.06214900  0.06297405  0.49086146     0.06300
N84         N  0.23459766  0.49286429  0.50419146    -0.03300
C85         C  0.25197363  0.48589875  0.47910865    -0.00700
C86         C  0.28978494  0.49398213  0.48823818    -0.23600
C87         C  0.28979995  0.99686462  0.52314908    -0.23800
C88         C  0.25686592  0.99861724  0.53182198    -0.00800
H89         H  0.31065278  0.49090343  0.47363184     0.13000
H90         H  0.31594466  0.00438817  0.53794887     0.13000
N91         N  0.51513641  0.23533319  0.50451400    -0.03300
C92         C  0.50635427  0.25138350  0.52922391    -0.00700
C93         C  0.51039070  0.28564481  0.51875000    -0.23600
C94         C  0.02167391  0.29063584  0.48674227    -0.23800
C95         C  0.02443918  0.25942350  0.47847480    -0.00800
H96         H  0.50470794  0.30456083  0.53258769     0.13000
H97         H  0.02762134  0.31474399  0.47124097     0.13000
N98         N  0.27137421  0.24978990  0.49044196    -0.03300
C99         C  0.25442556  0.22361052  0.51520602    -0.00700
C100        C  0.21728156  0.19216359  0.50534692    -0.23600
C101        C  0.21129507  0.19940347  0.47378337    -0.23800
C102        C  0.24477830  0.23515530  0.46528001    -0.00800
H103        H  0.19658045  0.16661884  0.51954024     0.13000
H104        H  0.18467777  0.18120728  0.45909705     0.13000
C105        C  0.99569649  0.06787791  0.49229287    -0.05100
C106        C  0.46787888  0.06923068  0.47140119    -0.05000
C107        C  0.46635783  0.10263495  0.46927505    -0.23100
C108        C  0.49230127  0.13514603  0.48829339     0.19100
C109        C  0.01987399  0.13379895  0.50983025     0.16300
C110        C  0.02163699  0.10037151  0.51144260    -0.18200
C111        C  0.04507985  0.16586144  0.52952991    -0.20000
C112        C  0.04314872  0.19900326  0.52785213    -0.12600
C113        C  0.51650320  0.20087654  0.50613412     0.04100
C114        C  0.49114362  0.16892620  0.48631186    -0.24700
H115        H  0.44765326  0.04454240  0.45637557     0.09200
H116        H  0.44487604  0.10301911  0.45279084     0.12800
H117        H  0.04269867  0.09934235  0.52800475     0.12700
H118        H  0.06620400  0.16526548  0.54628812     0.12500
H119        H  0.06274033  0.22352472  0.54323598     0.13000
H120        H  0.47030426  0.17036492  0.46979016     0.15000
C121        C  0.19573291  0.48856853  0.50443996    -0.05100
C122        C  0.16675205  0.46427638  0.52755483    -0.05000
C123        C  0.13012761  0.46221032  0.52967236    -0.23100
C124        C  0.12217912  0.48483985  0.50891965     0.19100
C125        C  0.14782590  0.00560206  0.48773398     0.16300
C126        C  0.18424131  0.00676742  0.48539245    -0.18200
C127        C  0.14020748  0.02886484  0.46749976    -0.20000
C128        C  0.10409666  0.02782072  0.47032439    -0.12600
C129        C  0.07805959  0.50671889  0.49091638     0.04100
C130        C  0.08589670  0.48369032  0.51145316    -0.24700
H131        H  0.17286415  0.44728612  0.54417484     0.09200
H132        H  0.10828489  0.44335575  0.54782760     0.12800
H133        H  0.20698388  0.02580523  0.46784679     0.12700
H134        H  0.16216340  0.04785917  0.44946834     0.12500
H135        H  0.09875940  0.04565822  0.45407203     0.13000
H136        H  0.06388772  0.46512675  0.52964255     0.15000
C137        C  0.42710908  0.42581587  0.50134442    -0.05100
C138        C  0.39696970  0.42045340  0.52295584    -0.05000
C139        C  0.36087579  0.38422332  0.52613199    -0.23100
C140        C  0.35408088  0.35273157  0.50754526     0.19100
C141        C  0.38415246  0.35775321  0.48567170     0.16300
C142        C  0.42054337  0.39411995  0.48292067    -0.18200
C143        C  0.37695016  0.32650415  0.46645850    -0.20000
C144        C  0.33998080  0.29090063  0.46841958    -0.12600
C145        C  0.31010062  0.28577027  0.49007129     0.04100
C146        C  0.31743302  0.31653227  0.50994896    -0.24700
H147        H  0.40150626  0.44429060  0.53766548     0.09200
H148        H  0.33814484  0.38092162  0.54294576     0.12800
H149        H  0.44331249  0.39802152  0.46583800     0.12700
H150        H  0.39958121  0.32980765  0.44952949     0.12500
H151        H  0.33440270  0.26723742  0.45295897     0.13000
H152        H  0.29401506  0.31248239  0.52635953     0.15000
C153        C  0.07712354  0.27981427  0.32679569    -0.05100
C154        C  0.04608693  0.28683382  0.33075798    -0.05000
C155        C  0.02738967  0.28088386  0.36079249    -0.23100
C156        C  0.03975349  0.26832144  0.38761423     0.19100
C157        C  0.07014763  0.26009800  0.38390460     0.16300
C158        C  0.08839273  0.26551705  0.35340049    -0.18200
C159        C  0.08283969  0.24819436  0.41109728    -0.20000
C160        C  0.06670960  0.24601621  0.44184912    -0.12600
C161        C  0.03728420  0.25523565  0.44580382     0.04100
C162        C  0.02336379  0.26548740  0.41835285    -0.24700
H163        H  0.03681439  0.29778394  0.31074113     0.09200
H164        H  0.00407372  0.28725712  0.36327235     0.12800
H165        H  0.11259286  0.26036073  0.35079322     0.12700
H166        H  0.10625566  0.24193113  0.40878992     0.12500
H167        H  0.07869226  0.23896459  0.46265276     0.13000
H168        H  0.00069082  0.27268635  0.42116138     0.15000
C169        C  0.23385635  0.47039412  0.44676732    -0.05100
C170        C  0.19324917  0.43979093  0.44335405    -0.05000
C171        C  0.17829957  0.42215894  0.41318876    -0.23100
C172        C  0.20394412  0.43445368  0.38612481     0.19100
C173        C  0.24458318  0.46569633  0.38925796     0.16300
C174        C  0.25906155  0.48365949  0.41937392    -0.18200
C175        C  0.27059222  0.47756896  0.36253841    -0.20000
C176        C  0.25687059  0.45779510  0.33318349    -0.12600
C177        C  0.21675042  0.42620284  0.32986987     0.04100
C178        C  0.19013666  0.41516561  0.35633287    -0.24700
H179        H  0.16837261  0.92650463  0.46389281     0.09200
H180        H  0.14711070  0.39806940  0.41128782     0.12800
H181        H  0.29043856  0.50725853  0.42175760     0.12700
H182        H  0.30183412  0.50150454  0.36458588     0.12500
H183        H  0.27786361  0.46693949  0.31316043     0.13000
H184        H  0.15917779  0.39063961  0.35417247     0.15000
C185        C  0.22433094  0.28805925  0.32021572    -0.05100
C186        C  0.21422572  0.24937763  0.31977324    -0.05000
C187        C  0.21879157  0.23215067  0.34759621    -0.23100
C188        C  0.23310745  0.25312880  0.37652896     0.19100
C189        C  0.24441189  0.29236241  0.37706339     0.16300
C190        C  0.24032339  0.30967982  0.34885794    -0.18200
C191        C  0.25809422  0.31312903  0.40614830    -0.20000
C192        C  0.25950529  0.29492172  0.43461827    -0.12600
C193        C  0.24783673  0.25579143  0.43446647     0.04100
C194        C  0.23500327  0.23516530  0.40518122    -0.24700
H195        H  0.20191525  0.23209431  0.29804715     0.09200
H196        H  0.21008514  0.20208204  0.34670765     0.12800
H197        H  0.24789094  0.33941572  0.34965140     0.12700
H198        H  0.26652821  0.34311283  0.40710734     0.12500
H199        H  0.26806929  0.31107417  0.45700209     0.13000
H200        H  0.22557907  0.20485221  0.40491051     0.15000
C201        C  0.99679143  0.25727990  0.06721985    -0.05700
C202        C  0.99232340  0.28469200  0.08368212    -0.05000
C203        C  0.01261471  0.30030030  0.11319353    -0.23100
C204        C  0.03639043  0.28759440  0.12724771     0.19100
C205        C  0.04028131  0.25952858  0.11095636     0.16300
C206        C  0.02134074  0.24538946  0.08096600    -0.18200
C207        C  0.06230832  0.24521522  0.12518195    -0.20000
C208        C  0.08011059  0.25822429  0.15554613    -0.12600
C209        C  0.07727809  0.28661706  0.17183178     0.04100
C210        C  0.05578944  0.30171171  0.15744261    -0.24700
H211        H  0.47258091  0.29342927  0.07412861     0.09200
H212        H  0.00881866  0.32145349  0.12544194     0.12800
H213        H  0.02499710  0.22420769  0.06855315     0.12700
H214        H  0.06541534  0.22360691  0.11296461     0.12500
H215        H  0.09707819  0.24675843  0.16601836     0.13000
H216        H  0.05358511  0.32369127  0.16996693     0.15000
C217        C  0.22394410  0.30564042  0.16712867    -0.05100
C218        C  0.25444781  0.33968100  0.15173096    -0.05000
C219        C  0.26557131  0.33866181  0.11990308    -0.23100
C220        C  0.24746681  0.30327128  0.10335961     0.19100
C221        C  0.21822123  0.26848492  0.11909065     0.16300
C222        C  0.20574860  0.26998345  0.15066748    -0.18200
C223        C  0.20244520  0.23297197  0.10301262    -0.20000
C224        C  0.21589879  0.23200373  0.07181726    -0.12600
C225        C  0.24343970  0.26669588  0.05521101     0.04100
C226        C  0.25862669  0.30223765  0.07142524    -0.24700
H227        H  0.26855693  0.36740608  0.16390522     0.09200
H228        H  0.28842208  0.36555967  0.10825727     0.12800
H229        H  0.18223522  0.24358005  0.16249937     0.12700
H230        H  0.18063863  0.20585901  0.11494750     0.12500
H231        H  0.20521624  0.20399501  0.06121775     0.13000
H232        H  0.27972359  0.32950795  0.05939592     0.15000
C233        C  0.25194733  0.49962643  0.06697120    -0.05100
C234        C  0.26537638  0.47391799  0.06811323    -0.05000
C235        C  0.26368079  0.45484395  0.09701344    -0.23100
C236        C  0.24718754  0.46006074  0.12501765     0.19100
C237        C  0.23421097  0.48628330  0.12436984     0.16300
C238        C  0.23736947  0.50638175  0.09555291    -0.18200
C239        C  0.21637481  0.49043694  0.15206002    -0.20000
C240        C  0.20960212  0.46736192  0.17960840    -0.12600
C241        C  0.22141734  0.44042870  0.18018015     0.04100
C242        C  0.24139314  0.43787921  0.15306790    -0.24700
H243        H  0.27669772  0.97267467  0.04780108     0.09200
H244        H  0.27342347  0.43454302  0.09703356     0.12800
H245        H  0.22677206  0.52602104  0.09498787     0.12700
H246        H  0.20629518  0.51046853  0.15198740     0.12500
H247        H  0.19440660  0.47004421  0.20023205     0.13000
H248        H  0.25046586  0.41708028  0.15307505     0.15000
C249        C  0.07464761  0.06966246  0.99376284    -0.05100
C250        C  0.10777305  0.06767255  0.98354384    -0.05000
C251        C  0.14722162  0.10059641  0.98352319    -0.23100
C252        C  0.15463656  0.13690012  0.99230690     0.19100
C253        C  0.12191043  0.13990278  0.00164996     0.16300
C254        C  0.08265825  0.10633517  0.00339354    -0.18200
C255        C  0.12886698  0.17659313  0.00862364    -0.20000
C256        C  0.16779564  0.20993060  0.00612497    -0.12600
C257        C  0.20081139  0.20711879  0.99802321     0.04100
C258        C  0.19407592  0.17034913  0.99145476    -0.24700
H259        H  0.10364564  0.04093743  0.97480871     0.09200
H260        H  0.17184576  0.09779809  0.97577308     0.12800
H261        H  0.05858901  0.10924377  0.01228157     0.12700
H262        H  0.10410875  0.17958718  0.01552464     0.12500
H263        H  0.17245736  0.23803585  0.01114853     0.13000
H264        H  0.21946539  0.16807340  0.98513175     0.15000
C265        C  0.97859810  0.29359662  0.00622562    -0.05100
C266        C  0.01716206  0.32495476  0.01523892    -0.05000
C267        C  0.02618637  0.36319524  0.01412861    -0.23100
C268        C  0.99733817  0.37095782  0.00270287     0.19100
C269        C  0.45957852  0.33987179  0.99160301     0.16300
C270        C  0.45017434  0.30156674  0.99416933    -0.18200
C271        C  0.43154022  0.34747872  0.97842817    -0.20000
C272        C  0.44031552  0.38542829  0.97689428    -0.12600
C273        C  0.97668278  0.41687184  0.98987981     0.04100
C274        C  0.00533194  0.40903647  0.00249921    -0.24700
H275        H  0.03995040  0.31972431  0.02393951     0.09200
H276        H  0.05568020  0.38665568  0.02224452     0.12800
H277        H  0.42009204  0.27789096  0.98788734     0.12700
H278        H  0.40283422  0.32402746  0.96897545     0.12500
H279        H  0.41821850  0.38977120  0.96527829     0.13000
H280        H  0.03352065  0.43204675  0.01286207     0.15000
C281        C  0.42350294  0.00964078  0.98910884    -0.05100
C282        C  0.39058847  0.48123440  0.96272811    -0.05000
C283        C  0.35592601  0.48292243  0.96176649    -0.23100
C284        C  0.35115948  0.50590363  0.98395229     0.19100
C285        C  0.38405568  0.03516243  0.00948101     0.16300
C286        C  0.41932233  0.03405723  0.01023471    -0.18200
C287        C  0.37860813  0.05765159  0.03177609    -0.20000
C288        C  0.34244596  0.05672405  0.03211747    -0.12600
C289        C  0.31137446  0.03381778  0.00991105     0.04100
C290        C  0.31543733  0.50610274  0.98430430    -0.24700
H291        H  0.39327603  0.46275400  0.94570635     0.09200
H292        H  0.33249541  0.46565738  0.94407658     0.12800
H293        H  0.44272839  0.05089095  0.02808327     0.12700
H294        H  0.40197150  0.07534155  0.04937338     0.12500
H295        H  0.33842646  0.07368023  0.04986480     0.13000
H296        H  0.29125788  0.48855100  0.96723167     0.15000
C297        C  0.43759041  0.21517358  0.67720212    -0.05100
C298        C  0.46665168  0.25507940  0.67330570    -0.05000
C299        C  0.48841645  0.26946987  0.64441050    -0.23100
C300        C  0.48104787  0.24431177  0.61864349     0.19100
C301        C  0.45261777  0.20403679  0.62248379     0.16300
C302        C  0.43147240  0.18966257  0.65185687    -0.18200
C303        C  0.44451406  0.17908215  0.59636322    -0.20000
C304        C  0.46311152  0.19407554  0.56630473    -0.12600
C305        C  0.49092861  0.23420906  0.56201179     0.04100
C306        C  0.50036070  0.25898872  0.58866650    -0.24700
H307        H  0.47200933  0.27534173  0.69238882     0.09200
H308        H  0.51012452  0.30045578  0.64186039     0.12800
H309        H  0.40892808  0.15884406  0.65437825     0.12700
H310        H  0.42254792  0.14813271  0.59878747     0.12500
H311        H  0.95409484  0.17435975  0.54613593     0.13000
H312        H  0.52171262  0.29000835  0.58573659     0.15000
C313        C  0.27157809  0.05359733  0.95396738    -0.05100
C314        C  0.31271518  0.08112813  0.94819775    -0.05000
C315        C  0.32651805  0.09401918  0.91665157    -0.23100
C316        C  0.29924892  0.07999272  0.89046747     0.19100
C317        C  0.25772740  0.05271563  0.89605674     0.16300
C318        C  0.24422660  0.03959700  0.92773209    -0.18200
C319        C  0.23032840  0.03954730  0.86995056    -0.20000
C320        C  0.24389471  0.05375766  0.83856541    -0.12600
C321        C  0.28512358  0.08089223  0.83276747     0.04100
C322        C  0.31268898  0.09356518  0.85890108    -0.24700
H323        H  0.33410400  0.09342109  0.96809637     0.09200
H324        H  0.35837268  0.11545425  0.91280148     0.12800
H325        H  0.21235502  0.01857851  0.93202039     0.12700
H326        H  0.19834328  0.01878719  0.87389350     0.12500
H327        H  0.22208722  0.04390819  0.81891641     0.13000
H328        H  0.34451295  0.11508625  0.85492423     0.15000
C329        C  0.42048686  0.21226599  0.83311444    -0.05100
C330        C  0.45821563  0.21775654  0.84035391    -0.05000
C331        C  0.47236870  0.22400923  0.87250637    -0.23100
C332        C  0.44850475  0.22395836  0.89779680     0.19100
C333        C  0.40992879  0.21714909  0.89060261     0.16300
C334        C  0.39642064  0.21161015  0.85843661    -0.18200
C335        C  0.38491900  0.21487392  0.91575382    -0.20000
C336        C  0.39781836  0.21883276  0.94792387    -0.12600
C337        C  0.43651258  0.22685170  0.95535163     0.04100
C338        C  0.46178478  0.22925678  0.93023577    -0.24700
H339        H  0.47689723  0.21781713  0.82115807     0.09200
H340        H  0.50176445  0.22859330  0.87762396     0.12800
H341        H  0.36649124  0.20558527  0.85313411     0.12700
H342        H  0.35490457  0.20878045  0.91062568     0.12500
H343        H  0.37713033  0.21458179  0.96713636     0.13000
H344        H  0.49088342  0.23349344  0.93614472     0.15000
C345        C  0.25411812  0.01393218  0.56358399    -0.05100
C346        C  0.24055622  0.03943752  0.56560984    -0.05000
C347        C  0.24335949  0.05782197  0.59482422    -0.23100
C348        C  0.26072225  0.05178534  0.62234000     0.19100
C349        C  0.27398627  0.02585996  0.62072120     0.16300
C350        C  0.27007777  0.00674302  0.59155468    -0.18200
C351        C  0.29240250  0.02062813  0.64792356    -0.20000
C352        C  0.29875347  0.04180836  0.67620129    -0.12600
C353        C  0.28621021  0.06811184  0.67798010     0.04100
C354        C  0.26649145  0.07239415  0.65102507    -0.24700
H355        H  0.22954225  0.04673815  0.54433535     0.09200
H356        H  0.23336974  0.07789411  0.59555117     0.12800
H357        H  0.28078733  0.98725513  0.59030723     0.12700
H358        H  0.30283754  0.00091426  0.64705022     0.12500
H359        H  0.31402567  0.03799444  0.69653885     0.13000
H360        H  0.25703089  0.09288406  0.65187218     0.15000
C361        C  0.28841823  0.20502759  0.66766006    -0.05100
C362        C  0.24703635  0.18967715  0.66247385    -0.05000
C363        C  0.23284864  0.19238829  0.63198473    -0.23100
C364        C  0.25969183  0.21004926  0.60595022     0.19100
C365        C  0.30141758  0.22594096  0.61080982     0.16300
C366        C  0.31559012  0.22364446  0.64169192    -0.18200
C367        C  0.32798856  0.24275207  0.58444429    -0.20000
C368        C  0.31318094  0.24290051  0.55340542    -0.12600
C369        C  0.27163556  0.22697147  0.54828840     0.04100
C370        C  0.24524397  0.21108042  0.57494583    -0.24700
H371        H  0.22545151  0.17504733  0.68192077     0.09200
H372        H  0.20072152  0.17993718  0.62860613     0.12800
H373        H  0.34754454  0.23521248  0.64519143     0.12700
H374        H  0.36006362  0.25478291  0.58763789     0.12500
H375        H  0.33416150  0.25417314  0.53335307     0.13000
H376        H  0.21315296  0.19879341  0.57146216     0.15000
C377        C  0.29456885  0.21598943  0.82435666    -0.05100
C378        C  0.33084780  0.24628675  0.83779067    -0.05000
C379        C  0.33235477  0.25757729  0.86975063    -0.23100
C380        C  0.29701345  0.24056096  0.88828588     0.19100
C381        C  0.25953955  0.21264079  0.87431514     0.16300
C382        C  0.25863928  0.19924595  0.84266084    -0.18200
C383        C  0.22403917  0.19910615  0.89232095    -0.20000
C384        C  0.22592436  0.21332170  0.92367237    -0.12600
C385        C  0.26352248  0.23888389  0.93879699     0.04100
C386        C  0.29886647  0.25163897  0.92052200    -0.24700
H387        H  0.35879723  0.25964311  0.82423088     0.09200
H388        H  0.36125324  0.27966502  0.87998166     0.12800
H389        H  0.23037853  0.17612675  0.83233058     0.12700
H390        H  0.19475409  0.17860349  0.88174436     0.12500
H391        H  0.19779264  0.20469297  0.93537387     0.13000
H392        H  0.32848635  0.27081626  0.93100711     0.15000
O393        O  0.40591765  0.68507384  0.77892333    -0.85200
O394        O  0.33463273  0.62001072  0.79448529    -0.82200
C395        C  0.29718528  0.59897534  0.79940042     0.98300
O396        O  0.27246904  0.59600650  0.77774088    -0.82200
O397        O  0.27688141  0.66360544  0.78941454    -0.84900
C398        C  0.29446545  0.69980256  0.79256361     1.02800
O399        O  0.31744070  0.72232221  0.77022278    -0.77600
O400        O  0.38235573  0.72131862  0.79083918    -0.77800
C401        C  0.40263699  0.70686978  0.79859229     1.02800
O402        O  0.38639139  0.66483429  0.71040211    -0.85200
O403        O  0.31824145  0.59580695  0.72731204    -0.82200
C404        C  0.29393729  0.59391191  0.70575345     0.98300
O405        O  0.27789591  0.61337980  0.70857580    -0.82300
O406        O  0.27504579  0.67729832  0.71972358    -0.84900
C407        C  0.30034541  0.69952590  0.69828463     1.02800
O408        O  0.33776527  0.71620435  0.70377714    -0.77700
O409        O  0.40847460  0.72445462  0.72471068    -0.77800
C410        C  0.40916651  0.70086685  0.70542829     1.02800
Cr411      Cr  0.35945022  0.64294497  0.75245638     1.93700
Cr412      Cr  0.27910269  0.63937811  0.74886465     1.93200
Cr413      Cr  0.35982812  0.71781639  0.74742585     1.39100
O414        O  0.33273749  0.66659235  0.74946868    -1.22900
C415        C  0.98481304  0.96248312  0.99472088     0.03300
C416        C  0.02359806  0.49090978  0.99060618    -0.12800
C417        C  0.03046320  0.52870205  0.98953287     0.00800
C418        C  0.99654288  0.53210716  0.98742307    -0.11400
C419        C  0.45704934  0.49913336  0.98748189     0.03300
C420        C  0.45232848  0.96812367  0.99410522    -0.10800
H421        H  0.04911654  0.48775341  0.99179921     0.08900
H422        H  0.00039946  0.56029774  0.98482721     0.06400
H423        H  0.42142476  0.94372111  0.99588543     0.06300
N424        N  0.27238803  0.52596312  0.00932625    -0.03300
C425        C  0.25419960  0.53408996  0.98510901    -0.00700
C426        C  0.21844381  0.52904247  0.99603468    -0.23600
C427        C  0.21573652  0.02376315  0.02979534    -0.23800
C428        C  0.24853412  0.02096120  0.03747980    -0.00800
H429        H  0.19752410  0.53344809  0.98234528     0.13000
H430        H  0.19019916  0.01614032  0.04511235     0.13000
N431        N  0.23745590  0.73737767  0.99760329    -0.03300
C432        C  0.25554901  0.76344887  0.02234500    -0.00700
C433        C  0.29329101  0.79385843  0.01280739    -0.23600
C434        C  0.29844962  0.78731322  0.98148464    -0.23800
C435        C  0.26418224  0.75231467  0.97221014    -0.00800
H436        H  0.31502518  0.81877732  0.02692718     0.13000
H437        H  0.32454693  0.80724839  0.96703275     0.13000
N438        N  0.96912616  0.75864802  0.00909971    -0.03300
C439        C  0.97506844  0.74198872  0.03562860    -0.00700
C440        C  0.95832337  0.70269194  0.03032897    -0.23600
C441        C  0.44224614  0.69490510  0.99969424    -0.23800
C442        C  0.44931453  0.72946571  0.98720472    -0.00800
H443        H  0.95809192  0.68180692  0.04690675     0.13000
H444        H  0.42752721  0.66713110  0.98756416     0.13000
O445        O  0.09586052  0.81411439  0.27557199    -0.85200
O446        O  0.16526372  0.88010322  0.29466677    -0.82200
C447        C  0.20258010  0.90249189  0.30008741     0.98300
O448        O  0.22824219  0.90615873  0.27942806    -0.82200
O449        O  0.22710008  0.83933971  0.28870563    -0.84900
C450        C  0.21272940  0.80337074  0.29041993     1.02800
O451        O  0.18822072  0.78108429  0.26892332    -0.77600
O452        O  0.12158136  0.78014055  0.29008073    -0.77800
C453        C  0.09871584  0.79218477  0.29593786     1.02800
O454        O  0.11741111  0.83873815  0.20861309    -0.85200
O455        O  0.18294207  0.90868370  0.22865495    -0.82200
C456        C  0.20903056  0.91379559  0.20791998     0.98300
O457        O  0.22530251  0.89440776  0.20984358    -0.82300
O458        O  0.23028814  0.83132701  0.21826585    -0.84900
C459        C  0.20496932  0.80762108  0.19759513     1.02800
O460        O  0.16762336  0.78835300  0.20347721    -0.77700
O461        O  0.09694364  0.77905589  0.22301090    -0.77800
C462        C  0.09712095  0.80283895  0.20283069     1.02800
Cr463      Cr  0.14233276  0.85889372  0.25161726     1.93700
Cr464      Cr  0.22409073  0.86575489  0.24909566     1.93200
Cr465      Cr  0.14520541  0.78564066  0.24663732     1.39100
O466        O  0.17073791  0.83691423  0.24884493    -1.22900
C467        C  0.00009421  0.53520315  0.49262363     0.03300
C468        C  0.46111926  0.99570966  0.49777569    -0.12800
C469        C  0.46184249  0.96175965  0.49992418     0.00800
C470        C  0.49918375  0.96472097  0.49874298    -0.11400
C471        C  0.03886663  0.50419874  0.49289433     0.03300
C472        C  0.03733976  0.53784505  0.49116492    -0.10800
H473        H  0.43242222  0.99365232  0.49846820     0.08900
H474        H  0.49982889  0.93855451  0.50015392     0.06400
H475        H  0.06512419  0.56608755  0.48861759     0.06300
N476        N  0.23066006  0.98793344  0.50637877    -0.03300
C477        C  0.24752085  0.97987065  0.48153084    -0.00700
C478        C  0.28396010  0.98514005  0.49144305    -0.23600
C479        C  0.29584672  0.50628486  0.51982075    -0.23800
C480        C  0.26166321  0.50556775  0.52908915    -0.00800
H481        H  0.30410137  0.98059984  0.47724272     0.13000
H482        H  0.32280423  0.51569027  0.53417024     0.13000
N483        N  0.51641361  0.73749085  0.50482443    -0.03300
C484        C  0.50802923  0.75334276  0.52993971    -0.00700
C485        C  0.51215188  0.78781140  0.51997810    -0.23600
C486        C  0.02308761  0.79314628  0.48788239    -0.23800
C487        C  0.02557645  0.76193526  0.47906410    -0.00800
H488        H  0.50669560  0.80662607  0.53420140     0.13000
H489        H  0.02901032  0.81748267  0.47270224     0.13000
N490        N  0.26911252  0.74690826  0.48835421    -0.03300
C491        C  0.25221980  0.72044025  0.51291741    -0.00700
C492        C  0.21570943  0.68855854  0.50255674    -0.23600
C493        C  0.21017548  0.69580919  0.47080590    -0.23800
C494        C  0.24324891  0.73205118  0.46273114    -0.00800
H495        H  0.19517746  0.66274648  0.51654323     0.13000
H496        H  0.18405888  0.67730079  0.45573453     0.13000
C497        C  0.99838791  0.57071065  0.49080087    -0.05100
C498        C  0.46903974  0.57137854  0.47137578    -0.05000
C499        C  0.46692516  0.60448410  0.46987799    -0.23100
C500        C  0.49384718  0.63746618  0.48803944     0.19100
C501        C  0.02317990  0.63697293  0.50796480     0.16300
C502        C  0.02548957  0.60380734  0.50896108    -0.18200
C503        C  0.04946531  0.66955713  0.52680254    -0.20000
C504        C  0.04670035  0.70226455  0.52599740    -0.12600
C505        C  0.51820388  0.70324226  0.50591382     0.04100
C506        C  0.49191662  0.67086755  0.48681328    -0.24700
H507        H  0.44796787  0.54634822  0.45701986     0.09200
H508        H  0.44415012  0.60423439  0.45459081     0.12800
H509        H  0.04780319  0.60342609  0.52441504     0.12700
H510        H  0.07202954  0.66967531  0.54226919     0.12500
H511        H  0.06714722  0.72719205  0.54069239     0.13000
H512        H  0.46978732  0.67168477  0.47145783     0.15000
C513        C  0.19210779  0.98440567  0.50664223    -0.05100
C514        C  0.16291517  0.96009340  0.52962680    -0.05000
C515        C  0.12641515  0.95825069  0.53174758    -0.23100
C516        C  0.11869127  0.98111463  0.51111715     0.19100
C517        C  0.15115647  0.50924953  0.48542124     0.16300
C518        C  0.18758725  0.51057901  0.48306843    -0.18200
C519        C  0.14344145  0.53236147  0.46510067    -0.20000
C520        C  0.10730181  0.53120740  0.46790402    -0.12600
C521        C  0.07474970  0.00331888  0.49328963     0.04100
C522        C  0.08244946  0.98008297  0.51367962    -0.24700
H523        H  0.16872717  0.94278872  0.54612407     0.09200
H524        H  0.10444976  0.93931451  0.54979949     0.12800
H525        H  0.21024355  0.52961897  0.46546595     0.12700
H526        H  0.16534402  0.55131763  0.44702098     0.12500
H527        H  0.10184061  0.54891272  0.45159287     0.13000
H528        H  0.06038136  0.96146307  0.53181193     0.15000
C529        C  0.42353776  0.92311408  0.50259766    -0.05100
C530        C  0.39256606  0.91735234  0.52344814    -0.05000
C531        C  0.35633535  0.88105051  0.52568863    -0.23100
C532        C  0.35030541  0.84995625  0.50690782     0.19100
C533        C  0.38115953  0.85553644  0.48567104     0.16300
C534        C  0.41757562  0.89190804  0.48384564    -0.18200
C535        C  0.37482385  0.82480500  0.46620338    -0.20000
C536        C  0.33802813  0.78903970  0.46741355    -0.12600
C537        C  0.30743942  0.78324570  0.48853855     0.04100
C538        C  0.31377384  0.81356916  0.50854767    -0.24700
H539        H  0.39656698  0.94088672  0.53829124     0.09200
H540        H  0.33296975  0.87735810  0.54197161     0.12800
H541        H  0.44093135  0.89619069  0.46723976     0.12700
H542        H  0.39807441  0.82860228  0.44973139     0.12500
H543        H  0.33318305  0.76571623  0.45185192     0.13000
H544        H  0.28977543  0.80899469  0.52452627     0.15000
C545        C  0.07630561  0.78190640  0.32692265    -0.05100
C546        C  0.04616833  0.79008768  0.33130228    -0.05000
C547        C  0.02811855  0.78474659  0.36155379    -0.23100
C548        C  0.04026446  0.77162799  0.38813181     0.19100
C549        C  0.06988145  0.76244999  0.38398017     0.16300
C550        C  0.08745729  0.76728670  0.35331001    -0.18200
C551        C  0.08249359  0.75009053  0.41087887    -0.20000
C552        C  0.06693738  0.74818461  0.44177884    -0.12600
C553        C  0.03809778  0.75806353  0.44618615     0.04100
C554        C  0.02438191  0.76902429  0.41904126    -0.24700
H555        H  0.03709051  0.80141774  0.31144448     0.09200
H556        H  0.00544988  0.79192326  0.36436847     0.12800
H557        H  0.11103499  0.76132115  0.35037620     0.12700
H558        H  0.10539132  0.74318998  0.40821668     0.12500
H559        H  0.07893224  0.74076551  0.46232633     0.13000
H560        H  0.00220640  0.77680170  0.42219943     0.15000
C561        C  0.23040132  0.96598198  0.44858105    -0.05100
C562        C  0.18928830  0.93741510  0.44376860    -0.05000
C563        C  0.17512672  0.92089926  0.41311749    -0.23100
C564        C  0.20200256  0.93221755  0.38694487     0.19100
C565        C  0.24323146  0.96134759  0.39145642     0.16300
C566        C  0.25697002  0.97829605  0.42202619    -0.18200
C567        C  0.27039871  0.97214058  0.36563461    -0.20000
C568        C  0.25704590  0.95352470  0.33573989    -0.12600
C569        C  0.21620183  0.92415923  0.33098189     0.04100
C570        C  0.18866535  0.91405208  0.35666340    -0.24700
H571        H  0.17348305  0.42828463  0.46419787     0.09200
H572        H  0.14344259  0.89837098  0.41014952     0.12800
H573        H  0.28876665  0.00031092  0.42542766     0.12700
H574        H  0.30214657  0.99438957  0.36876989     0.12500
H575        H  0.27883041  0.96184442  0.31643012     0.13000
H576        H  0.15712617  0.89117774  0.35346895     0.15000
C577        C  0.22325407  0.78688088  0.31814162    -0.05100
C578        C  0.21446379  0.74866354  0.31699124    -0.05000
C579        C  0.21954769  0.73126254  0.34449974    -0.23100
C580        C  0.23289832  0.75153052  0.37385243     0.19100
C581        C  0.24302654  0.79037838  0.37501759     0.16300
C582        C  0.23862075  0.80793662  0.34710724    -0.18200
C583        C  0.25566265  0.81044629  0.40446317    -0.20000
C584        C  0.25701469  0.79187045  0.43270961    -0.12600
C585        C  0.24640508  0.75306310  0.43203027     0.04100
C586        C  0.23479304  0.73318463  0.40232628    -0.24700
H587        H  0.20275504  0.73186918  0.29496635     0.09200
H588        H  0.21181413  0.70152611  0.34307466     0.12800
H589        H  0.24520580  0.83731274  0.34843480     0.12700
H590        H  0.26319205  0.84011861  0.40589189     0.12500
H591        H  0.26463233  0.80744674  0.45535038     0.13000
H592        H  0.22620376  0.70312855  0.40159792     0.15000
C593        C  0.99775377  0.76134930  0.06584998    -0.05700
C594        C  0.99416431  0.78954338  0.08189720    -0.05000
C595        C  0.01394907  0.80469747  0.11167354    -0.23100
C596        C  0.03628224  0.79077135  0.12642190     0.19100
C597        C  0.03919156  0.76188170  0.11058754     0.16300
C598        C  0.02091082  0.74826034  0.08032885    -0.18200
C599        C  0.05965923  0.74630358  0.12547612    -0.20000
C600        C  0.07704571  0.75900471  0.15598851    -0.12600
C601        C  0.07538295  0.78833221  0.17178892     0.04100
C602        C  0.05528586  0.80455001  0.15680493    -0.24700
H603        H  0.47540413  0.79920655  0.07190705     0.09200
H604        H  0.01087064  0.82648356  0.12357004     0.12800
H605        H  0.02406765  0.72658816  0.06825825     0.12700
H606        H  0.06193753  0.72400438  0.11362544     0.12500
H607        H  0.09288282  0.74660039  0.16692268     0.13000
H608        H  0.05393774  0.82722100  0.16895945     0.15000
C609        C  0.21900964  0.80407979  0.16558030    -0.05100
C610        C  0.24651973  0.83810495  0.14853313    -0.05000
C611        C  0.25661670  0.83631062  0.11658142    -0.23100
C612        C  0.24066058  0.80025149  0.10157543     0.19100
C613        C  0.21435983  0.76558265  0.11885492     0.16300
C614        C  0.20266497  0.76771368  0.15059406    -0.18200
C615        C  0.20081943  0.72966527  0.10411499    -0.20000
C616        C  0.21383544  0.72829123  0.07280260    -0.12600
C617        C  0.23878137  0.76275113  0.05498371     0.04100
C618        C  0.25135820  0.79854135  0.06968967    -0.24700
H619        H  0.25912685  0.86627709  0.15962080     0.09200
H620        H  0.27717231  0.86313554  0.10369163     0.12800
H621        H  0.18139431  0.74134073  0.16372243     0.12700
H622        H  0.18120437  0.70271387  0.11716505     0.12500
H623        H  0.20496691  0.70033589  0.06296202     0.13000
H624        H  0.27032115  0.82553833  0.05650710     0.15000
C625        C  0.25181456  0.00399014  0.06860513    -0.05100
C626        C  0.26593301  0.97881728  0.06948051    -0.05000
C627        C  0.26395538  0.95912903  0.09807136    -0.23100
C628        C  0.24642164  0.96308914  0.12600293     0.19100
C629        C  0.23240573  0.98848850  0.12557216     0.16300
C630        C  0.23590292  0.00927969  0.09711639    -0.18200
C631        C  0.21342976  0.99128016  0.15312957    -0.20000
C632        C  0.20680691  0.96781937  0.18037019    -0.12600
C633        C  0.21984804  0.94180876  0.18077682     0.04100
C634        C  0.24075372  0.94052870  0.15376565    -0.24700
H635        H  0.27525666  0.46684782  0.04640822     0.09200
H636        H  0.27441006  0.93938564  0.09789229     0.12800
H637        H  0.22472944  0.02845303  0.09680819     0.12700
H638        H  0.20245509  0.01060239  0.15319932     0.12500
H639        H  0.19077252  0.96948243  0.20087558     0.13000
H640        H  0.25082093  0.92050823  0.15363304     0.15000
C641        C  0.07275001  0.56448714  0.99015388    -0.05100
C642        C  0.10612880  0.56354960  0.97895687    -0.05000
C643        C  0.14538932  0.59677659  0.97966101    -0.23100
C644        C  0.15226241  0.63231794  0.99028802     0.19100
C645        C  0.11918075  0.63418236  0.00070399     0.16300
C646        C  0.08014887  0.60028211  0.00156436    -0.18200
C647        C  0.12551546  0.67012779  0.00955757    -0.20000
C648        C  0.16412427  0.70394161  0.00762833    -0.12600
C649        C  0.19751437  0.70233304  0.99827950     0.04100
C650        C  0.19145859  0.66618250  0.99011595    -0.24700
H651        H  0.10223995  0.53739396  0.96897601     0.09200
H652        H  0.17026692  0.59485802  0.97107231     0.12800
H653        H  0.05571705  0.60217815  0.01116398     0.12700
H654        H  0.10046893  0.67223155  0.01732681     0.12500
H655        H  0.16815608  0.73151967  0.01379675     0.13000
H656        H  0.21710647  0.66477018  0.98287180     0.15000
C657        C  0.97986452  0.79838037  0.00525652    -0.05100
C658        C  0.01902891  0.82973493  0.01273439    -0.05000
C659        C  0.02801834  0.86796440  0.01232109    -0.23100
C660        C  0.99824045  0.87564315  0.00357179     0.19100
C661        C  0.45951214  0.84447947  0.99434355     0.16300
C662        C  0.45041974  0.80616446  0.99570807    -0.18200
C663        C  0.43031739  0.85204626  0.98415094    -0.20000
C664        C  0.43908696  0.89004470  0.98341338    -0.12600
C665        C  0.97680324  0.92175343  0.99431967     0.04100
C666        C  0.00637362  0.91377976  0.00423381    -0.24700
H667        H  0.04232984  0.82444857  0.01974459     0.09200
H668        H  0.05817096  0.89147184  0.01904083     0.12800
H669        H  0.41999590  0.78230038  0.99043766     0.12700
H670        H  0.40069777  0.82853536  0.97628086     0.12500
H671        H  0.41587968  0.89403879  0.97377284     0.13000
H672        H  0.03558764  0.93667383  0.01308877     0.15000
C673        C  0.42148505  0.50298689  0.98549817    -0.05100
C674        C  0.39287436  0.98779941  0.96616838    -0.05000
C675        C  0.35818748  0.98942169  0.96476183    -0.23100
C676        C  0.35309265  0.01241986  0.98668330     0.19100
C677        C  0.38225178  0.52829823  0.00675026     0.16300
C678        C  0.41743215  0.52708208  0.00709282    -0.18200
C679        C  0.37711664  0.55071429  0.02934473    -0.20000
C680        C  0.34121806  0.55025092  0.02983975    -0.12600
C681        C  0.31006304  0.52778806  0.00755161     0.04100
C682        C  0.31712306  0.01221046  0.98683384    -0.24700
H683        H  0.39571652  0.96916145  0.94943631     0.09200
H684        H  0.33491633  0.97196600  0.94702320     0.12800
H685        H  0.44099522  0.54374322  0.02487909     0.12700
H686        H  0.40056239  0.56806610  0.04699390     0.12500
H687        H  0.33745828  0.56719099  0.04778026     0.13000
H688        H  0.29305072  0.99439993  0.96976266     0.15000
C689        C  0.43613453  0.71554754  0.67673463    -0.05100
C690        C  0.46573088  0.75538667  0.67338385    -0.05000
C691        C  0.48843118  0.76996773  0.64494533    -0.23100
C692        C  0.48150351  0.74508316  0.61907539     0.19100
C693        C  0.45259755  0.70484026  0.62239148     0.16300
C694        C  0.43046418  0.69024937  0.65133417    -0.18200
C695        C  0.44502180  0.68019096  0.59614197    -0.20000
C696        C  0.46442587  0.69551251  0.56639333    -0.12600
C697        C  0.49249427  0.73566444  0.56256076     0.04100
C698        C  0.50164034  0.76006353  0.58944323    -0.24700
H699        H  0.47081695  0.77547234  0.69254582     0.09200
H700        H  0.51051401  0.80091957  0.64279959     0.12800
H701        H  0.40755237  0.65948135  0.65345404     0.12700
H702        H  0.42276383  0.64926453  0.59816963     0.12500
H703        H  0.95570758  0.67608565  0.54605781     0.13000
H704        H  0.52324569  0.79108595  0.58688752     0.15000
C705        C  0.26969198  0.54734895  0.95176133    -0.05100
C706        C  0.31067273  0.57563658  0.94621936    -0.05000
C707        C  0.32437842  0.58974815  0.91487946    -0.23100
C708        C  0.29716768  0.57621843  0.88865728     0.19100
C709        C  0.25584176  0.54794506  0.89395236     0.16300
C710        C  0.24243814  0.53356987  0.92543294    -0.18200
C711        C  0.22850811  0.53522272  0.86779648    -0.20000
C712        C  0.24189537  0.55100743  0.83672998    -0.12600
C713        C  0.28290662  0.57929144  0.83127028     0.04100
C714        C  0.31044655  0.59135723  0.85739453    -0.24700
H715        H  0.33196766  0.58772626  0.96619282     0.09200
H716        H  0.35608229  0.61186142  0.91125789     0.12800
H717        H  0.21068110  0.51195420  0.92953918     0.12700
H718        H  0.19667487  0.51364031  0.87149067     0.12500
H719        H  0.22011620  0.54144973  0.81707997     0.13000
H720        H  0.34210474  0.61363509  0.85369990     0.15000
C721        C  0.41964486  0.71379408  0.83168809    -0.05100
C722        C  0.45802936  0.72055363  0.83842948    -0.05000
C723        C  0.47311915  0.72814740  0.87033585    -0.23100
C724        C  0.44961545  0.72830235  0.89585258     0.19100
C725        C  0.41050515  0.72039091  0.88912554     0.16300
C726        C  0.39598394  0.71333216  0.85723917    -0.18200
C727        C  0.38602904  0.71870525  0.91446976    -0.20000
C728        C  0.39989663  0.72418269  0.94642999    -0.12600
C729        C  0.43884203  0.73267707  0.95345267     0.04100
C730        C  0.46372589  0.73478411  0.92809842    -0.24700
H731        H  0.47649562  0.72064051  0.81903288     0.09200
H732        H  0.50298081  0.73367620  0.87508393     0.12800
H733        H  0.36568504  0.70656276  0.85231645     0.12700
H734        H  0.35566750  0.71186339  0.90969030     0.12500
H735        H  0.37956424  0.72021319  0.96584748     0.13000
H736        H  0.49308865  0.73948208  0.93372745     0.15000
C737        C  0.25792116  0.51977521  0.56102509    -0.05100
C738        C  0.24206736  0.54336300  0.56363070    -0.05000
C739        C  0.24304425  0.56011777  0.59329094    -0.23100
C740        C  0.26086656  0.55439497  0.62065288     0.19100
C741        C  0.27653286  0.53045653  0.61835714     0.16300
C742        C  0.27450793  0.51298209  0.58873944    -0.18200
C743        C  0.29536546  0.52553144  0.64538765    -0.20000
C744        C  0.29988015  0.54520304  0.67417830    -0.12600
C745        C  0.28513143  0.56969982  0.67661738     0.04100
C746        C  0.26483307  0.57350161  0.64985391    -0.24700
H747        H  0.23050058  0.55036571  0.54253959     0.09200
H748        H  0.23123014  0.57869744  0.59452157     0.12800
H749        H  0.28698342  0.49498473  0.58699245     0.12700
H750        H  0.30760640  0.50732451  0.64398435     0.12500
H751        H  0.31568291  0.54183479  0.69434742     0.13000
H752        H  0.25365428  0.59260936  0.65123308     0.15000
C753        C  0.28606456  0.70523063  0.66644716    -0.05100
C754        C  0.24480428  0.69049640  0.66124053    -0.05000
C755        C  0.23059144  0.69247454  0.63049159    -0.23100
C756        C  0.25727076  0.70881784  0.60419331     0.19100
C757        C  0.29892494  0.72434193  0.60911373     0.16300
C758        C  0.31312023  0.72275314  0.64023047    -0.18200
C759        C  0.32540590  0.74007108  0.58259661    -0.20000
C760        C  0.31061915  0.73963927  0.55140713    -0.12600
C761        C  0.26915293  0.72401011  0.54618550     0.04100
C762        C  0.24277240  0.70896034  0.57291616    -0.24700
H763        H  0.22330664  0.67680754  0.68087265     0.09200
H764        H  0.19854036  0.68043669  0.62713364     0.12800
H765        H  0.34498537  0.73391240  0.64372760     0.12700
H766        H  0.35741919  0.75182211  0.58583054     0.12500
H767        H  0.33153829  0.75029872  0.53130519     0.13000
H768        H  0.21072428  0.69680397  0.56928803     0.15000
C769        C  0.29194509  0.71597976  0.82368596    -0.05100
C770        C  0.32802273  0.74633078  0.83733331    -0.05000
C771        C  0.32919707  0.75727407  0.86936411    -0.23100
C772        C  0.29376315  0.73964558  0.88783229     0.19100
C773        C  0.25647178  0.71158655  0.87369508     0.16300
C774        C  0.25590003  0.69872943  0.84189840    -0.18200
C775        C  0.22083816  0.69727219  0.89173014    -0.20000
C776        C  0.22242230  0.71076727  0.92332381    -0.12600
C777        C  0.25988707  0.73638480  0.93858481     0.04100
C778        C  0.29535515  0.75007431  0.92022501    -0.24700
H779        H  0.35606814  0.75998787  0.82387661     0.09200
H780        H  0.35794809  0.77945637  0.87975194     0.12800
H781        H  0.22780518  0.67551059  0.83142370     0.12700
H782        H  0.19167227  0.67664226  0.88103309     0.12500
H783        H  0.19419071  0.70154365  0.93515216     0.13000
H784        H  0.32488256  0.76939472  0.93082991     0.15000
O785        O  0.90804629  0.18477539  0.77994562    -0.85200
O786        O  0.83697362  0.11974374  0.79546330    -0.82200
C787        C  0.79953308  0.09918273  0.80049104     0.98300
O788        O  0.77490186  0.09575347  0.77859748    -0.82200
O789        O  0.77925913  0.16332128  0.79031017    -0.84900
C790        C  0.79676778  0.19953865  0.79328860     1.02800
O791        O  0.81957633  0.22189892  0.77082208    -0.77600
O792        O  0.88434281  0.22088290  0.79186041    -0.77800
C793        C  0.90436032  0.20620756  0.79975316     1.02800
O794        O  0.88874676  0.16451169  0.71138799    -0.85200
O795        O  0.82068958  0.09531433  0.72814926    -0.82200
C796        C  0.79603971  0.09315060  0.70677302     0.98300
O797        O  0.78022270  0.11283750  0.70953885    -0.82300
O798        O  0.77745817  0.17682914  0.72066781    -0.84900
C799        C  0.80275789  0.19908123  0.69926279     1.02800
O800        O  0.84018585  0.21570646  0.70466512    -0.77700
O801        O  0.91087595  0.22411263  0.72577098    -0.77800
C802        C  0.91134034  0.20054716  0.70631734     1.02800
Cr803      Cr  0.86179598  0.14255864  0.75340838     1.93700
Cr804      Cr  0.78146626  0.13898167  0.74977256     1.93200
Cr805      Cr  0.86211799  0.21741950  0.74832296     1.39100
O806        O  0.83506629  0.16618420  0.75034964    -1.22900
C807        C  0.48408190  0.45718012  0.98999321     0.03300
C808        C  0.52455489  0.99603999  0.99519628    -0.12800
C809        C  0.53203941  0.03410979  0.99374697     0.00800
C810        C  0.49841705  0.03797597  0.99146952    -0.11400
C811        C  0.95875977  0.00532993  0.99180094     0.03300
C812        C  0.95117030  0.46214621  0.98930538    -0.10800
H813        H  0.54983033  0.99261201  0.99651889     0.08900
H814        H  0.50255481  0.06622537  0.98839157     0.06400
H815        H  0.92043728  0.43727343  0.99078425     0.06300
N816        N  0.77357167  0.03177921  0.01145658    -0.03300
C817        C  0.75607493  0.04084327  0.98734462    -0.00700
C818        C  0.72045564  0.03620549  0.99812058    -0.23600
C819        C  0.71444783  0.51746015  0.02793158    -0.23800
C820        C  0.74776553  0.51551797  0.03557778    -0.00800
H821        H  0.69996094  0.04118805  0.98440673     0.13000
H822        H  0.68911259  0.50989248  0.04348173     0.13000
N823        N  0.74117949  0.24151002  0.99745767    -0.03300
C824        C  0.75976997  0.26742215  0.02226882    -0.00700
C825        C  0.79797425  0.29704232  0.01275674    -0.23600
C826        C  0.80295598  0.29002652  0.98150311    -0.23800
C827        C  0.76809165  0.25553997  0.97219523    -0.00800
H828        H  0.82038263  0.32155797  0.02688759     0.13000
H829        H  0.82948349  0.30923543  0.96719538     0.13000
N830        N  0.46740344  0.25373230  0.01067469    -0.03300
C831        C  0.47357905  0.23744155  0.03735444    -0.00700
C832        C  0.45648891  0.19800821  0.03261926    -0.23600
C833        C  0.93972718  0.18964634  0.00220081    -0.23800
C834        C  0.94685717  0.22405680  0.98926757    -0.00800
H835        H  0.45655673  0.17745742  0.04942225     0.13000
H836        H  0.92470725  0.16163163  0.99044328     0.13000
O837        O  0.59736776  0.31309408  0.27580781    -0.85200
O838        O  0.66606797  0.38005739  0.29447983    -0.82200
C839        C  0.70328547  0.40332291  0.29965354     0.98300
O840        O  0.72912104  0.40689251  0.27927472    -0.82200
O841        O  0.72843448  0.34036957  0.29025299    -0.84900
C842        C  0.71459322  0.30449535  0.29199150     1.02800
O843        O  0.69128671  0.28219318  0.26994023    -0.77600
O844        O  0.62342020  0.27932486  0.29023742    -0.77800
C845        C  0.60018453  0.29096226  0.29602838     1.02800
O846        O  0.61879527  0.33723577  0.20858488    -0.85200
O847        O  0.68382572  0.40764351  0.22797157    -0.82200
C848        C  0.71043066  0.41285827  0.20766573     0.98300
O849        O  0.72718339  0.39395800  0.21028627    -0.82300
O850        O  0.73339601  0.33181057  0.22016358    -0.84900
C851        C  0.70883523  0.30859890  0.19888885     1.02800
O852        O  0.67131679  0.28911854  0.20410460    -0.77700
O853        O  0.59947234  0.27785123  0.22295444    -0.77800
C854        C  0.59908772  0.30135779  0.20281463     1.02800
Cr855      Cr  0.64349934  0.35803032  0.25151160     1.93700
Cr856      Cr  0.72590228  0.36615744  0.25003709     1.93200
Cr857      Cr  0.64792302  0.28557106  0.24704816     1.39100
O858        O  0.67256767  0.33673548  0.24929297    -1.22900
C859        C  0.49711796  0.03232027  0.49452366     0.03300
C860        C  0.96425657  0.49841472  0.49596906    -0.12800
C861        C  0.96521176  0.46454669  0.49781790     0.00800
C862        C  0.00260790  0.46774168  0.49619195    -0.11400
C863        C  0.53561489  0.00103979  0.49535493     0.03300
C864        C  0.53428343  0.03478174  0.49339207    -0.10800
H865        H  0.93547669  0.49613470  0.49714018     0.08900
H866        H  0.00347039  0.44168353  0.49744622     0.06400
H867        H  0.56213632  0.06297301  0.49085171     0.06300
N868        N  0.73457959  0.49285764  0.50419483    -0.03300
C869        C  0.75195742  0.48589458  0.47911159    -0.00700
C870        C  0.78976672  0.49397400  0.48824318    -0.23600
C871        C  0.78978794  0.99687256  0.52314974    -0.23800
C872        C  0.75685207  0.99862193  0.53182327    -0.00800
H873        H  0.81063540  0.49089610  0.47363728     0.13000
H874        H  0.81593477  0.00440045  0.53794836     0.13000
N875        N  0.01514483  0.23533150  0.50451893    -0.03300
C876        C  0.00636329  0.25138199  0.52922911    -0.00700
C877        C  0.01039966  0.28564330  0.51875550    -0.23600
C878        C  0.52166544  0.29063731  0.48673681    -0.23800
C879        C  0.52443102  0.25942506  0.47846990    -0.00800
H880        H  0.00471688  0.30455919  0.53259341     0.13000
H881        H  0.52761329  0.31474540  0.47123522     0.13000
N882        N  0.77138162  0.24980013  0.49043876    -0.03300
C883        C  0.75442978  0.22362242  0.51520372    -0.00700
C884        C  0.71728373  0.19217799  0.50534526    -0.23600
C885        C  0.71129895  0.19941780  0.47378126    -0.23800
C886        C  0.74478525  0.23516705  0.46527703    -0.00800
H887        H  0.69658002  0.16663510  0.51953943     0.13000
H888        H  0.68468053  0.18122384  0.45909530     0.13000
C889        C  0.49568500  0.06787892  0.49228390    -0.05100
C890        C  0.96788950  0.06922833  0.47141022    -0.05000
C891        C  0.96636781  0.10263225  0.46928303    -0.23100
C892        C  0.99231145  0.13514435  0.48830034     0.19100
C893        C  0.51986272  0.13379911  0.50982357     0.16300
C894        C  0.52162503  0.10037130  0.51143493    -0.18200
C895        C  0.54506817  0.16586052  0.52952439    -0.20000
C896        C  0.54313809  0.19900293  0.52784719    -0.12600
C897        C  0.01651242  0.20087526  0.50613956     0.04100
C898        C  0.99115274  0.16892400  0.48631813    -0.24700
H899        H  0.94766367  0.04453927  0.45638536     0.09200
H900        H  0.94488535  0.10301530  0.45279895     0.12800
H901        H  0.54268582  0.09934085  0.52799730     0.12700
H902        H  0.56619127  0.16526328  0.54628295     0.12500
H903        H  0.56272944  0.22352361  0.54323187     0.13000
H904        H  0.97031251  0.17036154  0.46979670     0.15000
C905        C  0.69571480  0.48856224  0.50444347    -0.05100
C906        C  0.66673506  0.46427251  0.52756011    -0.05000
C907        C  0.63011133  0.46220785  0.52967871    -0.23100
C908        C  0.62216203  0.48483609  0.50892506     0.19100
C909        C  0.64780901  0.00559724  0.48772915     0.16300
C910        C  0.68422457  0.00676289  0.48538986    -0.18200
C911        C  0.64019042  0.02885737  0.46749163    -0.20000
C912        C  0.60408017  0.02781440  0.47031498    -0.12600
C913        C  0.57804222  0.50671467  0.49092079     0.04100
C914        C  0.58588000  0.48368760  0.51145906    -0.24700
H915        H  0.67284766  0.44728326  0.54418087     0.09200
H916        H  0.60826977  0.44335527  0.54783539     0.12800
H917        H  0.70696698  0.02579866  0.46784328     0.12700
H918        H  0.66214597  0.04784910  0.44945895     0.12500
H919        H  0.59874270  0.04565010  0.45406055     0.13000
H920        H  0.56387174  0.46512574  0.52964948     0.15000
C921        C  0.92712886  0.42581815  0.50134985    -0.05100
C922        C  0.89699660  0.42045285  0.52297053    -0.05000
C923        C  0.86090248  0.38422312  0.52614720    -0.23100
C924        C  0.85410000  0.35273488  0.50755132     0.19100
C925        C  0.88416532  0.35775891  0.48566954     0.16300
C926        C  0.92055699  0.39412509  0.48291844    -0.18200
C927        C  0.87695554  0.32651318  0.46644800    -0.20000
C928        C  0.83998459  0.29091104  0.46840874    -0.12600
C929        C  0.81010997  0.28577870  0.49006778     0.04100
C930        C  0.81745022  0.31653716  0.50995373    -0.24700
H931        H  0.90153875  0.44428787  0.53768633     0.09200
H932        H  0.83817676  0.38091930  0.54296789     0.12800
H933        H  0.94332135  0.39802895  0.46582949     0.12700
H934        H  0.89958174  0.32981844  0.44951277     0.12500
H935        H  0.83440081  0.26725056  0.45294193     0.13000
H936        H  0.79403693  0.31248595  0.52637033     0.15000
C937        C  0.57712595  0.27982313  0.32679442    -0.05100
C938        C  0.54608278  0.28683395  0.33075396    -0.05000
C939        C  0.52738146  0.28087935  0.36078718    -0.23100
C940        C  0.53974794  0.26832129  0.38761019     0.19100
C941        C  0.57014871  0.26010632  0.38390304     0.16300
C942        C  0.58839775  0.26552976  0.35340027    -0.18200
C943        C  0.58284320  0.24820679  0.41109685    -0.20000
C944        C  0.56670931  0.24602533  0.44184762    -0.12600
C945        C  0.53727819  0.25523766  0.44579996     0.04100
C946        C  0.52335477  0.26548415  0.41834781    -0.24700
H947        H  0.53680801  0.29778059  0.31073598     0.09200
H948        H  0.50406031  0.28724592  0.36326516     0.12800
H949        H  0.61260273  0.26038000  0.35079492     0.12700
H950        H  0.60626390  0.24194975  0.40879129     0.12500
H951        H  0.57869352  0.23897729  0.46265246     0.13000
H952        H  0.50067731  0.27267752  0.42115486     0.15000
C953        C  0.73384457  0.47039639  0.44676759    -0.05100
C954        C  0.69323612  0.43979804  0.44334904    -0.05000
C955        C  0.67829014  0.42217104  0.41318162    -0.23100
C956        C  0.70393956  0.43446527  0.38612084     0.19100
C957        C  0.74458007  0.46570311  0.38925892     0.16300
C958        C  0.75905483  0.48366206  0.41937693    -0.18200
C959        C  0.77059376  0.47757451  0.36254238    -0.20000
C960        C  0.75687506  0.45780338  0.33318587    -0.12600
C961        C  0.71675336  0.42621539  0.32986776     0.04100
C962        C  0.69013526  0.41518045  0.35632744    -0.24700
H963        H  0.66835509  0.92650504  0.46389311     0.09200
H964        H  0.64709998  0.39808499  0.41127671     0.12800
H965        H  0.79043285  0.50725749  0.42176437     0.12700
H966        H  0.80183690  0.50150647  0.36459361     0.12500
H967        H  0.77787140  0.46694607  0.31316541     0.13000
H968        H  0.65917503  0.39065795  0.35416364     0.15000
C969        C  0.72433774  0.28807254  0.32021407    -0.05100
C970        C  0.71423514  0.24939180  0.31977071    -0.05000
C971        C  0.71880182  0.23216494  0.34759332    -0.23100
C972        C  0.73311615  0.25314234  0.37652649     0.19100
C973        C  0.74441835  0.29237529  0.37706178     0.16300
C974        C  0.74032859  0.30969254  0.34885675    -0.18200
C975        C  0.75810008  0.31314135  0.40614706    -0.20000
C976        C  0.75951248  0.29493395  0.43461656    -0.12600
C977        C  0.74784489  0.25580399  0.43446389     0.04100
C978        C  0.73501246  0.23517859  0.40517835    -0.24700
H979        H  0.70192608  0.23210906  0.29804421     0.09200
H980        H  0.71009731  0.20209691  0.34670414     0.12800
H981        H  0.74789410  0.33942773  0.34965081     0.12700
H982        H  0.76653281  0.34312474  0.40710668     0.12500
H983        H  0.76807683  0.31108580  0.45700083     0.13000
H984        H  0.72558926  0.20486580  0.40490719     0.15000
C985        C  0.49680868  0.25728376  0.06721480    -0.05700
C986        C  0.49234494  0.28470180  0.08367148    -0.05000
C987        C  0.51263580  0.30031318  0.11318238    -0.23100
C988        C  0.53640499  0.28760327  0.12724247     0.19100
C989        C  0.54029053  0.25953078  0.11095731     0.16300
C990        C  0.52135253  0.24539009  0.08096659    -0.18200
C991        C  0.56230919  0.24521211  0.12518952    -0.20000
C992        C  0.58010901  0.25822317  0.15555400    -0.12600
C993        C  0.57728283  0.28662330  0.17183306     0.04100
C994        C  0.55580222  0.30172277  0.15743744    -0.24700
H995        H  0.97255589  0.29341718  0.07414293     0.09200
H996        H  0.50884359  0.32147133  0.12542620     0.12800
H997        H  0.52500604  0.22420402  0.06855824     0.12700
H998        H  0.56541141  0.22359821  0.11297718     0.12500
H999        H  0.59707024  0.24675315  0.16603148     0.13000
H1000       H  0.55360252  0.32370779  0.16995689     0.15000
C1001       C  0.72394185  0.30564554  0.16712784    -0.05100
C1002       C  0.75444702  0.33968454  0.15172949    -0.05000
C1003       C  0.76556936  0.33866318  0.11990185    -0.23100
C1004       C  0.74746219  0.30327195  0.10335931     0.19100
C1005       C  0.71821420  0.26848694  0.11909057     0.16300
C1006       C  0.70574269  0.26998779  0.15066724    -0.18200
C1007       C  0.70243541  0.23297314  0.10301307    -0.20000
C1008       C  0.71589036  0.23200279  0.07181872    -0.12600
C1009       C  0.74343519  0.26669392  0.05521297     0.04100
C1010       C  0.75862271  0.30223639  0.07142586    -0.24700
H1011       H  0.76855838  0.36741024  0.16390304     0.09200
H1012       H  0.78842183  0.36555991  0.10825565     0.12800
H1013       H  0.68222779  0.24358564  0.16249955     0.12700
H1014       H  0.68062630  0.20586114  0.11494793     0.12500
H1015       H  0.70520628  0.20399342  0.06121979     0.13000
H1016       H  0.77972168  0.32950594  0.05939636     0.15000
C1017       C  0.75195634  0.49965026  0.06697382    -0.05100
C1018       C  0.76537978  0.47393730  0.06811200    -0.05000
C1019       C  0.76368137  0.45485857  0.09701019    -0.23100
C1020       C  0.74719129  0.46007566  0.12501630     0.19100
C1021       C  0.73422009  0.48630247  0.12437219     0.16300
C1022       C  0.73738089  0.50640496  0.09555718    -0.18200
C1023       C  0.71638700  0.49045663  0.15206412    -0.20000
C1024       C  0.70961230  0.46737852  0.17961070    -0.12600
C1025       C  0.72142242  0.44044148  0.18017896     0.04100
C1026       C  0.74139492  0.43789082  0.15306487    -0.24700
H1027       H  0.77670871  0.97268284  0.04780834     0.09200
H1028       H  0.77341980  0.43455441  0.09702737     0.12800
H1029       H  0.72678746  0.52604747  0.09499496     0.12700
H1030       H  0.70631147  0.51049139  0.15199435     0.12500
H1031       H  0.69441951  0.47006177  0.20023589     0.13000
H1032       H  0.75046355  0.41708879  0.15306943     0.15000
C1033       C  0.57464741  0.06966402  0.99376161    -0.05100
C1034       C  0.60777330  0.06767353  0.98354481    -0.05000
C1035       C  0.64722206  0.10059725  0.98352478    -0.23100
C1036       C  0.65463684  0.13690141  0.99230689     0.19100
C1037       C  0.62191046  0.13990434  0.00164857     0.16300
C1038       C  0.58265812  0.10633691  0.00339172    -0.18200
C1039       C  0.62886681  0.17659485  0.00862116    -0.20000
C1040       C  0.66779553  0.20993230  0.00612287    -0.12600
C1041       C  0.70081156  0.20712032  0.99802263     0.04100
C1042       C  0.69407625  0.17035055  0.99145474    -0.24700
H1043       H  0.60364614  0.04093813  0.97481061     0.09200
H1044       H  0.67184643  0.09779850  0.97577620     0.12800
H1045       H  0.55858868  0.10924585  0.01227862     0.12700
H1046       H  0.60410836  0.17958901  0.01552119     0.12500
H1047       H  0.67245713  0.23803757  0.01114594     0.13000
H1048       H  0.71946595  0.16807472  0.98513273     0.15000
C1049       C  0.47861212  0.29359304  0.00621635    -0.05100
C1050       C  0.51717641  0.32495279  0.01522684    -0.05000
C1051       C  0.52619927  0.36319272  0.01411482    -0.23100
C1052       C  0.49734910  0.37095307  0.00268987     0.19100
C1053       C  0.95956765  0.33987816  0.99161432     0.16300
C1054       C  0.95016190  0.30157258  0.99417908    -0.18200
C1055       C  0.93153121  0.34748727  0.97843902    -0.20000
C1056       C  0.94030841  0.38543752  0.97690582    -0.12600
C1057       C  0.47668959  0.41686404  0.98986728     0.04100
C1058       C  0.50534095  0.40903107  0.00248559    -0.24700
H1059       H  0.53996599  0.31972394  0.02392743     0.09200
H1060       H  0.55569321  0.38665437  0.02222914     0.12800
H1061       H  0.92007940  0.27789796  0.98789596     0.12700
H1062       H  0.90282548  0.32403716  0.96898495     0.12500
H1063       H  0.91821286  0.38978208  0.96528924     0.13000
H1064       H  0.53352975  0.43204269  0.01284728     0.15000
C1065       C  0.92350281  0.00963587  0.98911676    -0.05100
C1066       C  0.89059669  0.48125896  0.96273217    -0.05000
C1067       C  0.85593691  0.48295154  0.96176863    -0.23100
C1068       C  0.85116988  0.50593069  0.98395644     0.19100
C1069       C  0.88405890  0.03516202  0.00948643     0.16300
C1070       C  0.91932472  0.03405560  0.01024045    -0.18200
C1071       C  0.87861434  0.05765536  0.03177902    -0.20000
C1072       C  0.84245318  0.05672959  0.03212000    -0.12600
C1073       C  0.81137998  0.03382087  0.00991566     0.04100
C1074       C  0.81544982  0.50613370  0.98430686    -0.24700
H1075       H  0.89328462  0.46278013  0.94570893     0.09200
H1076       H  0.83250855  0.46569141  0.94407565     0.12800
H1077       H  0.94273238  0.05089151  0.02808721     0.12700
H1078       H  0.90197916  0.07534722  0.04937465     0.12500
H1079       H  0.83843567  0.07368878  0.04986554     0.13000
H1080       H  0.79127214  0.48858628  0.96723160     0.15000
C1081       C  0.93758934  0.21517654  0.67720354    -0.05100
C1082       C  0.96665511  0.25508132  0.67330802    -0.05000
C1083       C  0.98842319  0.26947000  0.64441416    -0.23100
C1084       C  0.98105368  0.24431121  0.61864750     0.19100
C1085       C  0.95261888  0.20403707  0.62248681     0.16300
C1086       C  0.93146988  0.18966455  0.65185862    -0.18200
C1087       C  0.94451459  0.17908195  0.59636639    -0.20000
C1088       C  0.96311578  0.19407438  0.56630882    -0.12600
C1089       C  0.99093665  0.23420730  0.56201673     0.04100
C1090       C  0.00036992  0.25898700  0.58867155    -0.24700
H1091       H  0.97201404  0.27534432  0.69239095     0.09200
H1092       H  0.01013481  0.30045530  0.64186470     0.12800
H1093       H  0.90892204  0.15884682  0.65437926     0.12700
H1094       H  0.92254511  0.14813315  0.59878987     0.12500
H1095       H  0.45409081  0.17436067  0.54613207     0.13000
H1096       H  0.02172490  0.29000617  0.58574218     0.15000
C1097       C  0.77158194  0.05359707  0.95397070    -0.05100
C1098       C  0.81271899  0.08112693  0.94819959    -0.05000
C1099       C  0.82652035  0.09401852  0.91665305    -0.23100
C1100       C  0.79924985  0.07999387  0.89046977     0.19100
C1101       C  0.75772871  0.05271654  0.89606012     0.16300
C1102       C  0.74422937  0.03959701  0.92773590    -0.18200
C1103       C  0.73032846  0.03954984  0.86995470    -0.20000
C1104       C  0.74389292  0.05376320  0.83856968    -0.12600
C1105       C  0.78512120  0.08089921  0.83277073     0.04100
C1106       C  0.81268812  0.09356927  0.85890334    -0.24700
H1107       H  0.83410896  0.09341969  0.96809744     0.09200
H1108       H  0.85837478  0.11545347  0.91280218     0.12800
H1109       H  0.71235788  0.01857899  0.93202507     0.12700
H1110       H  0.69834364  0.01878919  0.87389829     0.12500
H1111       H  0.72208427  0.04391506  0.81892157     0.13000
H1112       H  0.84451180  0.11509079  0.85492592     0.15000
C1113       C  0.92048471  0.21227897  0.83311504    -0.05100
C1114       C  0.95821001  0.21776254  0.84035655    -0.05000
C1115       C  0.97236154  0.22401421  0.87250955    -0.23100
C1116       C  0.94849914  0.22396888  0.89779877     0.19100
C1117       C  0.90992700  0.21716767  0.89060249     0.16300
C1118       C  0.89642083  0.21163035  0.85843592    -0.18200
C1119       C  0.88491792  0.21489710  0.91575236    -0.20000
C1120       C  0.89781362  0.21885154  0.94792319    -0.12600
C1121       C  0.93650428  0.22686250  0.95535336     0.04100
C1122       C  0.96177617  0.22926375  0.93023862    -0.24700
H1123       H  0.97688993  0.21781768  0.82116189     0.09200
H1124       H  0.00175428  0.22859207  0.87762863     0.12800
H1125       H  0.86649379  0.20561082  0.85313221     0.12700
H1126       H  0.85490605  0.20880940  0.91062266     0.12500
H1127       H  0.87712477  0.21460239  0.96713431     0.13000
H1128       H  0.99087163  0.23349401  0.93614911     0.15000
C1129       C  0.75410356  0.01393573  0.56358620    -0.05100
C1130       C  0.74053114  0.03943259  0.56561548    -0.05000
C1131       C  0.74333318  0.05781528  0.59483091    -0.23100
C1132       C  0.76070578  0.05178612  0.62234416     0.19100
C1133       C  0.77398071  0.02586960  0.62072173     0.16300
C1134       C  0.77007268  0.00675368  0.59155473    -0.18200
C1135       C  0.79240708  0.02064541  0.64792088    -0.20000
C1136       C  0.79875702  0.04182443  0.67619914    -0.12600
C1137       C  0.78620305  0.06811939  0.67798200     0.04100
C1138       C  0.76647421  0.07239392  0.65103005    -0.24700
H1139       H  0.72950941  0.04672817  0.54434297     0.09200
H1140       H  0.73333484  0.07788060  0.59556047     0.12800
H1141       H  0.78078988  0.98727209  0.59030526     0.12700
H1142       H  0.80285081  0.00093858  0.64704453     0.12500
H1143       H  0.81403732  0.03801659  0.69653384     0.13000
H1144       H  0.75700504  0.09287711  0.65188004     0.15000
C1145       C  0.78841829  0.20503862  0.66765858    -0.05100
C1146       C  0.74703762  0.18969463  0.66247298    -0.05000
C1147       C  0.73285120  0.19240778  0.63198381    -0.23100
C1148       C  0.75969444  0.21006403  0.60594863     0.19100
C1149       C  0.80141905  0.22594933  0.61080773     0.16300
C1150       C  0.81559035  0.22365118  0.64168984    -0.18200
C1151       C  0.82799002  0.24275558  0.58444168    -0.20000
C1152       C  0.81318328  0.24290518  0.55340275    -0.12600
C1153       C  0.77163905  0.22698244  0.54828619     0.04100
C1154       C  0.74524760  0.21109649  0.57494409    -0.24700
H1155       H  0.72545268  0.17506846  0.68192051     0.09200
H1156       H  0.70072494  0.17996171  0.62860563     0.12800
H1157       H  0.84754380  0.23521433  0.64518888     0.12700
H1158       H  0.86006416  0.25478149  0.58763494     0.12500
H1159       H  0.83416327  0.25417374  0.53334991     0.13000
H1160       H  0.71315743  0.19881422  0.57146058     0.15000
C1161       C  0.79456965  0.21600873  0.82435284    -0.05100
C1162       C  0.83084844  0.24630750  0.83778588    -0.05000
C1163       C  0.83235594  0.25759785  0.86974607    -0.23100
C1164       C  0.79701531  0.24057929  0.88828252     0.19100
C1165       C  0.75954134  0.21265889  0.87431217     0.16300
C1166       C  0.75864052  0.19926501  0.84265748    -0.18200
C1167       C  0.72404145  0.19912151  0.89231930    -0.20000
C1168       C  0.72592720  0.21333263  0.92367261    -0.12600
C1169       C  0.76352555  0.23889375  0.93879730     0.04100
C1170       C  0.79886914  0.25165372  0.92051993    -0.24700
H1171       H  0.85879752  0.25966415  0.82422555     0.09200
H1172       H  0.86125448  0.27968599  0.87997674     0.12800
H1173       H  0.73037985  0.17614498  0.83232784     0.12700
H1174       H  0.69475623  0.17861896  0.88174287     0.12500
H1175       H  0.69779552  0.20470069  0.93537566     0.13000
H1176       H  0.82848939  0.27083070  0.93100431     0.15000
O1177       O  0.90592083  0.68508365  0.77892104    -0.85200
O1178       O  0.83463760  0.62002051  0.79448343    -0.82200
C1179       C  0.79719058  0.59898690  0.79940067     0.98300
O1180       O  0.77247289  0.59601689  0.77774182    -0.82200
O1181       O  0.77688295  0.66361385  0.78941439    -0.84900
C1182       C  0.79446672  0.69981061  0.79256480     1.02800
O1183       O  0.81744322  0.72233155  0.77022513    -0.77600
O1184       O  0.88235727  0.72132592  0.79084058    -0.77800
C1185       C  0.90263868  0.70687681  0.79859218     1.02800
O1186       O  0.88639298  0.66484583  0.71039995    -0.85200
O1187       O  0.81824382  0.59581652  0.72730984    -0.82200
C1188       C  0.79393680  0.59391944  0.70575298     0.98300
O1189       O  0.77789680  0.61338847  0.70857559    -0.82300
O1190       O  0.77504825  0.67730784  0.71972295    -0.84900
C1191       C  0.80034931  0.69953789  0.69828566     1.02800
O1192       O  0.83776884  0.71621706  0.70377959    -0.77700
O1193       O  0.90847706  0.72446557  0.72471117    -0.77800
C1194       C  0.90916870  0.70087863  0.70542747     1.02800
Cr1195     Cr  0.85945305  0.64295501  0.75245420     1.93700
Cr1196     Cr  0.77910502  0.63938750  0.74886451     1.93200
Cr1197     Cr  0.85983062  0.71782637  0.74742750     1.39100
O1198       O  0.83273985  0.66660209  0.74946822    -1.22900
C1199       C  0.48481087  0.96248521  0.99471719     0.03300
C1200       C  0.52360037  0.49090271  0.99059284    -0.12800
C1201       C  0.53046190  0.52869372  0.98952018     0.00800
C1202       C  0.49653922  0.53209524  0.98741146    -0.11400
C1203       C  0.95705168  0.49914734  0.98749162     0.03300
C1204       C  0.95233007  0.96812051  0.99411201    -0.10800
H1205       H  0.54912039  0.48774865  0.99178489     0.08900
H1206       H  0.50039287  0.56028458  0.98481558     0.06400
H1207       H  0.92142682  0.94371727  0.99589393     0.06300
N1208       N  0.77240088  0.52599347  0.00933103    -0.03300
C1209       C  0.75421463  0.53412421  0.98511478    -0.00700
C1210       C  0.71846033  0.52907958  0.99604106    -0.23600
C1211       C  0.71574478  0.02376990  0.02980179    -0.23800
C1212       C  0.74854217  0.02096743  0.03748609    -0.00800
H1213       H  0.69754211  0.53348777  0.98235215     0.13000
H1214       H  0.69020856  0.01614905  0.04511945     0.13000
N1215       N  0.73744682  0.73737480  0.99760468    -0.03300
C1216       C  0.75553980  0.76344503  0.02234718    -0.00700
C1217       C  0.79328282  0.79385384  0.01281041    -0.23600
C1218       C  0.79844174  0.78730982  0.98148760    -0.23800
C1219       C  0.76417412  0.75231214  0.97221213    -0.00800
H1220       H  0.81501829  0.81877133  0.02693081     0.13000
H1221       H  0.82454004  0.80724505  0.96703671     0.13000
N1222       N  0.46913414  0.75865379  0.00909767    -0.03300
C1223       C  0.47508014  0.74199506  0.03562506    -0.00700
C1224       C  0.45833753  0.70269888  0.03032435    -0.23600
C1225       C  0.94223398  0.69489829  0.99969810    -0.23800
C1226       C  0.94930610  0.72945966  0.98720702    -0.00800
H1227       H  0.45810907  0.68181438  0.04690090     0.13000
H1228       H  0.92751369  0.66712383  0.98756871     0.13000
O1229       O  0.59585687  0.81410692  0.27556907    -0.85200
O1230       O  0.66525674  0.88009594  0.29466881    -0.82200
C1231       C  0.70257251  0.90248518  0.30009143     0.98300
O1232       O  0.72823688  0.90615298  0.27943387    -0.82200
O1233       O  0.72709896  0.83933570  0.28871095    -0.84900
C1234       C  0.71273097  0.80336712  0.29042397     1.02800
O1235       O  0.68822050  0.78107983  0.26892867    -0.77600
O1236       O  0.62157774  0.78013446  0.29008193    -0.77800
C1237       C  0.59871080  0.79217781  0.29593641     1.02800
O1238       O  0.61741528  0.83873385  0.20861233    -0.85200
O1239       O  0.68294209  0.90867988  0.22865808    -0.82200
C1240       C  0.70903273  0.91379365  0.20792451     0.98300
O1241       O  0.72530454  0.89440571  0.20984870    -0.82300
O1242       O  0.73029190  0.83132597  0.21827223    -0.84900
C1243       C  0.70497462  0.80761877  0.19760145     1.02800
O1244       O  0.66762836  0.78834969  0.20348204    -0.77700
O1245       O  0.59694671  0.77905101  0.22300959    -0.77800
C1246       C  0.59712575  0.80283487  0.20282920     1.02800
Cr1247     Cr  0.64233130  0.85888799  0.25161783     1.93700
Cr1248     Cr  0.72409044  0.86575165  0.24910122     1.93200
Cr1249     Cr  0.64520640  0.78563609  0.24664007     1.39100
O1250       O  0.67073779  0.83690961  0.24884810    -1.22900
C1251       C  0.50007749  0.53520024  0.49261635     0.03300
C1252       C  0.96113243  0.99570856  0.49778508    -0.12800
C1253       C  0.96185678  0.96175904  0.49993222     0.00800
C1254       C  0.99919865  0.96472147  0.49875053    -0.11400
C1255       C  0.53884925  0.50419500  0.49289739     0.03300
C1256       C  0.53732297  0.53784144  0.49116340    -0.10800
H1257       H  0.93243496  0.99365024  0.49847784     0.08900
H1258       H  0.99984434  0.93855523  0.50016001     0.06400
H1259       H  0.56510794  0.56608359  0.48861665     0.06300
N1260       N  0.73064406  0.98793283  0.50638086    -0.03300
C1261       C  0.74750502  0.97986959  0.48153331    -0.00700
C1262       C  0.78394669  0.98514409  0.49144488    -0.23600
C1263       C  0.79582572  0.50627229  0.51982690    -0.23800
C1264       C  0.76164266  0.50555647  0.52909426    -0.00800
H1265       H  0.80408916  0.98060532  0.47724483     0.13000
H1266       H  0.82278171  0.51567505  0.53417767     0.13000
N1267       N  0.01643049  0.73749489  0.50482899    -0.03300
C1268       C  0.00804479  0.75334706  0.52994346    -0.00700
C1269       C  0.01216384  0.78781364  0.51997989    -0.23600
C1270       C  0.52307645  0.79314539  0.48788053    -0.23800
C1271       C  0.52556247  0.76193313  0.47906058    -0.00800
H1272       H  0.00670513  0.80662763  0.53420166     0.13000
H1273       H  0.52900211  0.81748369  0.47270168     0.13000
N1274       N  0.76913087  0.74690527  0.48834935    -0.03300
C1275       C  0.75224011  0.72043740  0.51291262    -0.00700
C1276       C  0.71573395  0.68855112  0.50255097    -0.23600
C1277       C  0.71020023  0.69579897  0.47079919    -0.23800
C1278       C  0.74326968  0.73204378  0.46272520    -0.00800
H1279       H  0.69520423  0.66273852  0.51653778     0.13000
H1280       H  0.68408557  0.67728741  0.45572713     0.13000
C1281       C  0.49837251  0.57070829  0.49079164    -0.05100
C1282       C  0.96905253  0.57137937  0.47138748    -0.05000
C1283       C  0.96693792  0.60448487  0.46988931    -0.23100
C1284       C  0.99386258  0.63746866  0.48804793     0.19100
C1285       C  0.52316226  0.63696893  0.50795818     0.16300
C1286       C  0.52547186  0.60380348  0.50895416    -0.18200
C1287       C  0.54944546  0.66955134  0.52679836    -0.20000
C1288       C  0.54668040  0.70225857  0.52599400    -0.12600
C1289       C  0.01822180  0.70324675  0.50591872     0.04100
C1290       C  0.99193240  0.67087027  0.48682065    -0.24700
H1291       H  0.94797893  0.54634798  0.45703330     0.09200
H1292       H  0.94416098  0.60423391  0.45460375     0.12800
H1293       H  0.54778328  0.60342095  0.52441008     0.12700
H1294       H  0.57200807  0.66966828  0.54226624     0.12500
H1295       H  0.56712580  0.72718490  0.54069070     0.13000
H1296       H  0.96980133  0.67168611  0.47146649     0.15000
C1297       C  0.69209161  0.98440437  0.50664298    -0.05100
C1298       C  0.66289914  0.96009415  0.52962835    -0.05000
C1299       C  0.62639887  0.95825128  0.53174715    -0.23100
C1300       C  0.61867483  0.98111280  0.51111371     0.19100
C1301       C  0.65113808  0.50924310  0.48542481     0.16300
C1302       C  0.68756826  0.51057142  0.48307115    -0.18200
C1303       C  0.64342238  0.53235354  0.46510300    -0.20000
C1304       C  0.60728343  0.53120054  0.46790676    -0.12600
C1305       C  0.57473410  0.00331615  0.49328205     0.04100
C1306       C  0.58243353  0.98008213  0.51367477    -0.24700
H1307       H  0.66871153  0.94279161  0.54612783     0.09200
H1308       H  0.60443365  0.93931718  0.54979995     0.12800
H1309       H  0.71022353  0.52960966  0.46546729     0.12700
H1310       H  0.66532381  0.55130751  0.44702179     0.12500
H1311       H  0.60182172  0.54890446  0.45159421     0.13000
H1312       H  0.56036577  0.96146482  0.53180826     0.15000
C1313       C  0.92355234  0.92311276  0.50260346    -0.05100
C1314       C  0.89258060  0.91734744  0.52345565    -0.05000
C1315       C  0.85635012  0.88104490  0.52569372    -0.23100
C1316       C  0.85032034  0.84995369  0.50690848     0.19100
C1317       C  0.88117437  0.85553782  0.48566968     0.16300
C1318       C  0.91759034  0.89190988  0.48384696    -0.18200
C1319       C  0.87483900  0.82480973  0.46619762    -0.20000
C1320       C  0.83804425  0.78904348  0.46740626    -0.12600
C1321       C  0.80745578  0.78324507  0.48853368     0.04100
C1322       C  0.81378934  0.81356568  0.50854631    -0.24700
H1323       H  0.89658140  0.94087956  0.53830188     0.09200
H1324       H  0.83298462  0.87734954  0.54197831     0.12800
H1325       H  0.94094617  0.89619548  0.46723985     0.12700
H1326       H  0.89808938  0.82861012  0.44972387     0.12500
H1327       H  0.83320000  0.76572238  0.45184191     0.13000
H1328       H  0.78979127  0.80898808  0.52452683     0.15000
C1329       C  0.57629788  0.78190012  0.32691995    -0.05100
C1330       C  0.54616666  0.79008976  0.33129883    -0.05000
C1331       C  0.52811701  0.78475222  0.36154988    -0.23100
C1332       C  0.54025674  0.77162843  0.38812826     0.19100
C1333       C  0.56986658  0.76244097  0.38397718     0.16300
C1334       C  0.58744238  0.76727429  0.35330745    -0.18200
C1335       C  0.58247255  0.75007608  0.41087612    -0.20000
C1336       C  0.56691766  0.74817416  0.44177578    -0.12600
C1337       C  0.53808477  0.75806184  0.44618266     0.04100
C1338       C  0.52437507  0.76902849  0.41903747    -0.24700
H1339       H  0.53709419  0.80142456  0.31144095     0.09200
H1340       H  0.50545374  0.79193597  0.36436396     0.12800
H1341       H  0.61101504  0.76130182  0.35037430     0.12700
H1342       H  0.60536474  0.74316822  0.40821445     0.12500
H1343       H  0.57890850  0.74075073  0.46232324     0.13000
H1344       H  0.50220471  0.77681252  0.42219505     0.15000
C1345       C  0.73038553  0.96597916  0.44858347    -0.05100
C1346       C  0.68927199  0.93741404  0.44376976    -0.05000
C1347       C  0.67511121  0.92089831  0.41311829    -0.23100
C1348       C  0.70198846  0.93221422  0.38694686     0.19100
C1349       C  0.74321775  0.96134216  0.39145997     0.16300
C1350       C  0.75695516  0.97829120  0.42202950    -0.18200
C1351       C  0.77038690  0.97213258  0.36564010    -0.20000
C1352       C  0.75703576  0.95351626  0.33574564    -0.12600
C1353       C  0.71619142  0.92415284  0.33098579     0.04100
C1354       C  0.68865271  0.91404831  0.35666526    -0.24700
H1355       H  0.67346586  0.42829118  0.46419034     0.09200
H1356       H  0.64342666  0.89837171  0.41014923     0.12800
H1357       H  0.78875199  0.00030514  0.42543145     0.12700
H1358       H  0.80213511  0.99437977  0.36877683     0.12500
H1359       H  0.77882192  0.96183397  0.31643758     0.13000
H1360       H  0.65711320  0.89117564  0.35346930     0.15000
C1361       C  0.72326161  0.78687861  0.31814266    -0.05100
C1362       C  0.71448401  0.74866588  0.31698715    -0.05000
C1363       C  0.71957362  0.73126515  0.34449321    -0.23100
C1364       C  0.73291708  0.75152867  0.37384835     0.19100
C1365       C  0.74303305  0.79037244  0.37501819     0.16300
C1366       C  0.73862206  0.80793063  0.34711038    -0.18200
C1367       C  0.75566175  0.81043597  0.40446590    -0.20000
C1368       C  0.75701842  0.79185956  0.43271001    -0.12600
C1369       C  0.74642099  0.75305621  0.43202619     0.04100
C1370       C  0.73481626  0.73318209  0.40232013    -0.24700
H1371       H  0.70278089  0.73187485  0.29496018     0.09200
H1372       H  0.71184972  0.70153209  0.34306436     0.12800
H1373       H  0.74519749  0.83730312  0.34844167     0.12700
H1374       H  0.76318153  0.84010487  0.40589809     0.12500
H1375       H  0.76463005  0.80743173  0.45535260     0.13000
H1376       H  0.72623599  0.70312881  0.40158859     0.15000
C1377       C  0.49776624  0.76135543  0.06584611    -0.05700
C1378       C  0.49417455  0.78954700  0.08189540    -0.05000
C1379       C  0.51395795  0.80469882  0.11167251    -0.23100
C1380       C  0.53629170  0.79077261  0.12641954     0.19100
C1381       C  0.53920416  0.76188612  0.11058275     0.16300
C1382       C  0.52092522  0.74826755  0.08032315    -0.18200
C1383       C  0.55967255  0.74630795  0.12547009    -0.20000
C1384       C  0.57705621  0.75900567  0.15598383    -0.12600
C1385       C  0.57539003  0.78832998  0.17178655     0.04100
C1386       C  0.55529265  0.80454802  0.15680371    -0.24700
H1387       H  0.97539515  0.79920368  0.07190758     0.09200
H1388       H  0.51087752  0.82648274  0.12357087     0.12800
H1389       H  0.52408413  0.72659756  0.06825072     0.12700
H1390       H  0.56195337  0.72401121  0.11361748     0.12500
H1391       H  0.59289390  0.74660154  0.16691721     0.13000
H1392       H  0.55394223  0.82721675  0.16896006     0.15000
C1393       C  0.71901664  0.80407668  0.16558800    -0.05100
C1394       C  0.74653496  0.83810126  0.14854396    -0.05000
C1395       C  0.75663102  0.83630690  0.11659203    -0.23100
C1396       C  0.74066483  0.80024809  0.10158272     0.19100
C1397       C  0.71435656  0.76557948  0.11885941     0.16300
C1398       C  0.70266349  0.76771095  0.15059892    -0.18200
C1399       C  0.70080605  0.72966174  0.10411602    -0.20000
C1400       C  0.71381981  0.72828705  0.07280288    -0.12600
C1401       C  0.73877291  0.76274728  0.05498642     0.04100
C1402       C  0.75135897  0.79853800  0.06969596    -0.24700
H1403       H  0.75914797  0.86627336  0.15963352     0.09200
H1404       H  0.77719269  0.86313149  0.10370429     0.12800
H1405       H  0.68138644  0.74133857  0.16372495     0.12700
H1406       H  0.68118497  0.70271027  0.11716402     0.12500
H1407       H  0.70494419  0.70033073  0.06296028     0.13000
H1408       H  0.77032645  0.82553555  0.05651556     0.15000
C1409       C  0.75182344  0.00399674  0.06861201    -0.05100
C1410       C  0.76594339  0.97882495  0.06948760    -0.05000
C1411       C  0.76396583  0.95913619  0.09807822    -0.23100
C1412       C  0.74643043  0.96309413  0.12600969     0.19100
C1413       C  0.73241391  0.98849306  0.12557925     0.16300
C1414       C  0.73591113  0.00928502  0.09712362    -0.18200
C1415       C  0.71343675  0.99128298  0.15313665    -0.20000
C1416       C  0.70681241  0.96782041  0.18037645    -0.12600
C1417       C  0.71985304  0.94180931  0.18078244     0.04100
C1418       C  0.74076077  0.94053147  0.15377165    -0.24700
H1419       H  0.77525808  0.46686775  0.04640545     0.09200
H1420       H  0.77442136  0.93939344  0.09789882     0.12800
H1421       H  0.72473665  0.02845756  0.09681573     0.12700
H1422       H  0.70246183  0.01060504  0.15320688     0.12500
H1423       H  0.69077690  0.96948217  0.20088154     0.13000
H1424       H  0.75082761  0.92051053  0.15363848     0.15000
C1425       C  0.57274724  0.56448111  0.99014230    -0.05100
C1426       C  0.60612862  0.56354685  0.97894712    -0.05000
C1427       C  0.64538815  0.59677498  0.97965477    -0.23100
C1428       C  0.65225781  0.63231446  0.99028338     0.19100
C1429       C  0.61917360  0.63417619  0.00069654     0.16300
C1430       C  0.58014245  0.60027460  0.00155345    -0.18200
C1431       C  0.62550528  0.67012024  0.00955111    -0.20000
C1432       C  0.66411377  0.70393533  0.00762565    -0.12600
C1433       C  0.69750612  0.70232909  0.99827958     0.04100
C1434       C  0.69145325  0.66617990  0.99011541    -0.24700
H1435       H  0.60224277  0.53739279  0.96896553     0.09200
H1436       H  0.67026784  0.59485875  0.97106780     0.12800
H1437       H  0.55570860  0.60216839  0.01115151     0.12700
H1438       H  0.60045677  0.67222197  0.01731814     0.12500
H1439       H  0.66814350  0.73151235  0.01379463     0.13000
H1440       H  0.71710292  0.66476955  0.98287322     0.15000
C1441       C  0.47986923  0.79838527  0.00525582    -0.05100
C1442       C  0.51903331  0.82974129  0.01273218    -0.05000
C1443       C  0.52802059  0.86796997  0.01231867    -0.23100
C1444       C  0.49824069  0.87564654  0.00357085     0.19100
C1445       C  0.95951210  0.84447753  0.99434214     0.16300
C1446       C  0.95041748  0.80616190  0.99570674    -0.18200
C1447       C  0.93031940  0.85204617  0.98414760    -0.20000
C1448       C  0.93909032  0.89004493  0.98341124    -0.12600
C1449       C  0.47680084  0.92175501  0.99431848     0.04100
C1450       C  0.50637261  0.91378269  0.00423173    -0.24700
H1451       H  0.54233598  0.82445675  0.01974083     0.09200
H1452       H  0.55817330  0.89147860  0.01903674     0.12800
H1453       H  0.91999335  0.78229909  0.99043544     0.12700
H1454       H  0.90070019  0.82853648  0.97627542     0.12500
H1455       H  0.91588492  0.89404099  0.97376933     0.13000
H1456       H  0.53558715  0.93667741  0.01308493     0.15000
C1457       C  0.92149020  0.50300507  0.98550615    -0.05100
C1458       C  0.89287219  0.98779158  0.96617857    -0.05000
C1459       C  0.85818594  0.98941480  0.96477180    -0.23100
C1460       C  0.85309406  0.01241700  0.98669078     0.19100
C1461       C  0.88225936  0.52831892  0.00675830     0.16300
C1462       C  0.91743715  0.52709845  0.00710272    -0.18200
C1463       C  0.87712393  0.55073293  0.02935469    -0.20000
C1464       C  0.84122756  0.55027350  0.02984800    -0.12600
C1465       C  0.81007495  0.52781660  0.00755635     0.04100
C1466       C  0.81712559  0.01220942  0.98684081    -0.24700
H1467       H  0.89571249  0.96915106  0.94944811     0.09200
H1468       H  0.83491333  0.97195720  0.94703483     0.12800
H1469       H  0.94099803  0.54375478  0.02489185     0.12700
H1470       H  0.90056758  0.56807986  0.04700680     0.12500
H1471       H  0.83746731  0.56721153  0.04779032     0.13000
H1472       H  0.79305176  0.99439702  0.96977137     0.15000
C1473       C  0.93613768  0.71556024  0.67673425    -0.05100
C1474       C  0.96572761  0.75540074  0.67338025    -0.05000
C1475       C  0.98842973  0.76998102  0.64494251    -0.23100
C1476       C  0.98151037  0.74509417  0.61907652     0.19100
C1477       C  0.95261046  0.70485036  0.62239567     0.16300
C1478       C  0.93047521  0.69026043  0.65133760    -0.18200
C1479       C  0.94504252  0.68019865  0.59614978    -0.20000
C1480       C  0.96444790  0.69551835  0.56640124    -0.12600
C1481       C  0.99251052  0.73567102  0.56256545     0.04100
C1482       C  0.00164944  0.76007275  0.58944499    -0.24700
H1483       H  0.97080735  0.77548784  0.69253900     0.09200
H1484       H  0.01050753  0.80093374  0.64279419     0.12800
H1485       H  0.90756852  0.65949135  0.65345982     0.12700
H1486       H  0.92278919  0.64927139  0.59817988     0.12500
H1487       H  0.45568066  0.67608237  0.54604744     0.13000
H1488       H  0.02325049  0.79109578  0.58688721     0.15000
C1489       C  0.76970598  0.54738101  0.95176665    -0.05100
C1490       C  0.81068584  0.57567045  0.94622350    -0.05000
C1491       C  0.82438993  0.58977975  0.91488268    -0.23100
C1492       C  0.79717852  0.57624450  0.88866072     0.19100
C1493       C  0.75585368  0.54796858  0.89395718     0.16300
C1494       C  0.74245154  0.53359691  0.92543877    -0.18200
C1495       C  0.72851930  0.53523974  0.86780154    -0.20000
C1496       C  0.74190456  0.55102056  0.83673371    -0.12600
C1497       C  0.78291453  0.57930714  0.83127242     0.04100
C1498       C  0.81045548  0.59137967  0.85739662    -0.24700
H1499       H  0.83198098  0.58776274  0.96619675     0.09200
H1500       H  0.85609298  0.61189487  0.91126005     0.12800
H1501       H  0.71069526  0.51197973  0.92954618     0.12700
H1502       H  0.69668698  0.51365513  0.87149687     0.12500
H1503       H  0.72012472  0.54145773  0.81708382     0.13000
H1504       H  0.84211263  0.61365967  0.85370073     0.15000
C1505       C  0.91964444  0.71379716  0.83168859    -0.05100
C1506       C  0.95802565  0.72054927  0.83843132    -0.05000
C1507       C  0.97311317  0.72813865  0.87033840    -0.23100
C1508       C  0.94961036  0.72829653  0.89585446     0.19100
C1509       C  0.91050303  0.72039208  0.88912607     0.16300
C1510       C  0.89598419  0.71333774  0.85723908    -0.18200
C1511       C  0.88602736  0.71870896  0.91446953    -0.20000
C1512       C  0.89989263  0.72418267  0.94643028    -0.12600
C1513       C  0.93883561  0.73267125  0.95345428     0.04100
C1514       C  0.96371870  0.73477478  0.92810086    -0.24700
H1515       H  0.97649116  0.72063366  0.81903532     0.09200
H1516       H  0.00297239  0.73366185  0.87508756     0.12800
H1517       H  0.86568736  0.70657355  0.85231543     0.12700
H1518       H  0.85566783  0.71187213  0.90968902     0.12500
H1519       H  0.87956028  0.72021536  0.96584707     0.13000
H1520       H  0.99307928  0.73946805  0.93373084     0.15000
C1521       C  0.75790118  0.51976515  0.56102993    -0.05100
C1522       C  0.74205295  0.54335780  0.56363392    -0.05000
C1523       C  0.74303395  0.56011667  0.59329305    -0.23100
C1524       C  0.76085494  0.55439315  0.62065557     0.19100
C1525       C  0.77651467  0.53044904  0.61836179     0.16300
C1526       C  0.77448551  0.51297048  0.58874516    -0.18200
C1527       C  0.79534582  0.52552302  0.64539293    -0.20000
C1528       C  0.79986645  0.54519982  0.67418185    -0.12600
C1529       C  0.78512503  0.56970276  0.67661875     0.04100
C1530       C  0.76482715  0.57350490  0.64985500    -0.24700
H1531       H  0.73048811  0.55036155  0.54254215     0.09200
H1532       H  0.73122466  0.57870043  0.59452218     0.12800
H1533       H  0.78695685  0.49496945  0.58699941     0.12700
H1534       H  0.80758144  0.50731148  0.64399130     0.12500
H1535       H  0.81566803  0.54183058  0.69435133     0.13000
H1536       H  0.75365358  0.59261700  0.65123250     0.15000
C1537       C  0.78607132  0.70524413  0.66644752    -0.05100
C1538       C  0.74481190  0.69051164  0.66123840    -0.05000
C1539       C  0.73060198  0.69248850  0.63048775    -0.23100
C1540       C  0.75728349  0.70882847  0.60419049     0.19100
C1541       C  0.79893714  0.72435237  0.60911382     0.16300
C1542       C  0.81312945  0.72276525  0.64023215    -0.18200
C1543       C  0.82542049  0.74007856  0.58259794    -0.20000
C1544       C  0.81063632  0.73964303  0.55140666    -0.12600
C1545       C  0.76917047  0.72401266  0.54618214     0.04100
C1546       C  0.74278770  0.70896685  0.57291142    -0.24700
H1547       H  0.72331272  0.67682449  0.68086970     0.09200
H1548       H  0.69855136  0.68045133  0.62712754     0.12800
H1549       H  0.84499404  0.73392351  0.64373138     0.12700
H1550       H  0.85743344  0.75182962  0.58583430     0.12500
H1551       H  0.83155685  0.75030028  0.53130563     0.13000
H1552       H  0.71073985  0.69680975  0.56928057     0.15000
C1553       C  0.79194419  0.71598555  0.82368756    -0.05100
C1554       C  0.82802050  0.74633729  0.83733584    -0.05000
C1555       C  0.82919319  0.75727832  0.86936709    -0.23100
C1556       C  0.79375871  0.73964683  0.88783474     0.19100
C1557       C  0.75646841  0.71158692  0.87369674     0.16300
C1558       C  0.75589856  0.69873191  0.84189964    -0.18200
C1559       C  0.72083398  0.69727005  0.89173131    -0.20000
C1560       C  0.72241632  0.71076436  0.92332498    -0.12600
C1561       C  0.75988031  0.73638278  0.93858677     0.04100
C1562       C  0.79534918  0.75007381  0.92022768    -0.24700
H1563       H  0.85606636  0.75999664  0.82387949     0.09200
H1564       H  0.85794332  0.77946134  0.87975565     0.12800
H1565       H  0.72780475  0.67551237  0.83142422     0.12700
H1566       H  0.69166874  0.67663928  0.88103366     0.12500
H1567       H  0.69418398  0.70153955  0.93515254     0.13000
H1568       H  0.82487613  0.76939441  0.93083306     0.15000
loop_ 
_geom_bond_atom_site_label_1 
_geom_bond_atom_site_label_2 
_geom_bond_distance 
_geom_bond_site_symmetry_2 
_ccdc_geom_bond_type 
O1          Cr19   2.024       .  S
O1            C9   1.269       .  A
O2          Cr19   1.959       .  S
O2            C3   1.256       .  A
C3            O4   1.268       .  A
C3          C321   1.477       .  S
O4          Cr20   2.014       .  S
O5          Cr20   1.981       .  S
O5            C6   1.258       .  A
C6            O7   1.268       .  A
C6          C377   1.478       .  S
O7          Cr21   2.011       .  S
O8          Cr21   1.960       .  S
O8            C9   1.257       .  A
C9          C329   1.474       .  S
O10         Cr19   1.974       .  S
O10          C18   1.259       .  A
O11         Cr19   2.017       .  S
O11          C12   1.270       .  A
C12          O13   1.259       .  A
C12         C353   1.482       .  S
O13         Cr20   1.969       .  S
O14         Cr20   2.016       .  S
O14          C15   1.271       .  A
C15          O16   1.261       .  A
C15         C361   1.482       .  S
O16         Cr21   1.972       .  S
O17         Cr21   2.016       .  S
O17          C18   1.268       .  A
C18         C297   1.484       .  S
Cr19         O22   1.770       .  S
Cr20         O22   1.772       .  S
Cr21         O22   1.765       .  S
C23         C273   1.510       .  S
C23         C416   1.414   1_655  A
C23         C812   1.411       .  A
C24          C25   1.419   1_565  A
C24         C415   1.416   1_455  A
C24          H29   1.074       .  S
C25         C249   1.512       .  S
C25          C26   1.413   1_455  A
C26         C811   1.401       .  A
C26          H30   1.081   1_655  S
C27         C281   1.488       .  S
C27         C810   1.401       .  A
C27         C420   1.402   1_545  A
C28         C807   1.411       .  A
C28         C419   1.401       .  A
C28          H31   1.081       .  S
N32          C33   1.359   1_554  A
N32         C428   1.361       .  A
N32         C289   1.442       .  S
C33         C313   1.480       .  S
C33          C34   1.383       .  A
C34         C427   1.373   1_556  A
C34          H37   1.082       .  S
C35          C36   1.385       .  A
C35         C426   1.373   1_554  A
C35          H38   1.082       .  S
C36         C233   1.487       .  S
C36         N424   1.361       .  A
N39          C43   1.372       .  A
N39          C40   1.370   1_556  A
N39         C257   1.443       .  S
C40         C225   1.500       .  S
C40          C41   1.382       .  A
C41          C42   1.362   1_554  A
C41          H44   1.082       .  S
C42          C43   1.389       .  A
C42          H45   1.080       .  S
C43         C385   1.509       .  S
N46          C47   1.364       .  A
N46         C834   1.363   1_554  A
N46         C265   1.449       .  S
C47         C201   1.486       .  S
C47          C48   1.386       .  A
C48         C833   1.368       .  A
C48          H51   1.082       .  S
C49          C50   1.377   1_554  A
C49         C832   1.368       .  A
C49          H52   1.083   1_554  S
C50         C337   1.472       .  S
C50         N830   1.363   1_556  A
O53         Cr71   2.014       .  S
O53          C61   1.269       .  A
O54         Cr71   1.969       .  S
O54          C55   1.258       .  A
C55          O56   1.268       .  A
C55         C177   1.479       .  S
O56         Cr72   2.014       .  S
O57         Cr72   1.983       .  S
O57          C58   1.260       .  A
C58          O59   1.264       .  A
C58         C185   1.482       .  S
O59         Cr73   2.005       .  S
O60         Cr73   1.979       .  S
O60          C61   1.260       .  A
C61         C153   1.483       .  S
O62         Cr71   1.976       .  S
O62          C70   1.259       .  A
O63         Cr71   2.019       .  S
O63          C64   1.268       .  A
C64          O65   1.258       .  A
C64         C241   1.481       .  S
O65         Cr72   1.967       .  S
O66         Cr72   2.016       .  S
O66          C67   1.271       .  A
C67          O68   1.259       .  A
C67         C217   1.475       .  S
O68         Cr73   1.969       .  S
O69         Cr73   2.006       .  S
O69          C70   1.267       .  A
C70         C209   1.472       .  S
Cr71         O74   1.772       .  S
Cr72         O74   1.764       .  S
Cr73         O74   1.770       .  S
C75         C105   1.485       .  S
C75          C80   1.408   1_655  A
C75        C1252   1.404   1_545  A
C76          C77   1.405       .  A
C76        C1251   1.405       .  A
C76          H81   1.083       .  S
C77         C137   1.485       .  S
C77          C78   1.404       .  A
C78        C1255   1.405       .  A
C78          H82   1.083       .  S
C79         C521   1.490       .  S
C79          C80   1.408       .  A
C79        C1254   1.406   1_445  A
C80          H83   1.083       .  S
N84          C85   1.358       .  A
N84         C480   1.359       .  A
N84         C121   1.438       .  S
C85         C169   1.483       .  S
C85          C86   1.384       .  A
C86         C479   1.373       .  A
C86          H89   1.082       .  S
C87          C88   1.383       .  A
C87         C478   1.371       .  A
C87          H90   1.082   1_565  S
C88         C345   1.487   1_565  S
C88         N476   1.361       .  A
N91          C92   1.361       .  A
N91         C879   1.359       .  A
N91         C113   1.437       .  S
C92         C305   1.490       .  S
C92          C93   1.384       .  A
C93         C878   1.373       .  A
C93          H96   1.082       .  S
C94          C95   1.383       .  A
C94         C877   1.373       .  A
C94          H97   1.082       .  S
C95         C161   1.486       .  S
C95         N875   1.359       .  A
N98         C102   1.358       .  A
N98          C99   1.359       .  A
N98         C145   1.436       .  S
C99         C369   1.490       .  S
C99         C100   1.386       .  A
C100        C101   1.376       .  A
C100        H103   1.082       .  S
C101        C102   1.382       .  A
C101        H104   1.082       .  S
C102        C193   1.485       .  S
C105        C110   1.405   1_655  A
C105        C890   1.407       .  A
C106        C107   1.399       .  A
C106        C889   1.407       .  A
C106        H115   1.083       .  S
C107        C108   1.402       .  A
C107        H116   1.084       .  S
C108        C114   1.406       .  A
C108        C893   1.415       .  A
C109        C111   1.402       .  A
C109        C110   1.404       .  A
C109        C892   1.415   1_455  A
C110        H117   1.084       .  S
C111        C112   1.396       .  A
C111        H118   1.084       .  S
C112        C897   1.402       .  A
C112        H119   1.083       .  S
C113        C114   1.404       .  A
C113        C896   1.402       .  A
C114        H120   1.084       .  S
C121        C122   1.402       .  A
C121        C518   1.404       .  A
C122        C123   1.397       .  A
C122        H131   1.083       .  S
C123        C124   1.403       .  A
C123        H132   1.084       .  S
C124        C130   1.404       .  A
C124        C517   1.414       .  A
C125        C127   1.403       .  A
C125        C126   1.408       .  A
C125        C516   1.415   1_545  A
C126        C513   1.405   1_545  A
C126        H133   1.084       .  S
C127        C128   1.400       .  A
C127        H134   1.084       .  S
C128        C521   1.407       .  A
C128        H135   1.083       .  S
C129        C471   1.488       .  S
C129        C130   1.408       .  A
C129        C520   1.406       .  A
C130        H136   1.084       .  S
C137        C138   1.406       .  A
C137        C142   1.407       .  A
C138        C139   1.397       .  A
C138        H147   1.083       .  S
C139        C140   1.401       .  A
C139        H148   1.084       .  S
C140        C146   1.404       .  A
C140        C141   1.415       .  A
C141        C143   1.403       .  A
C141        C142   1.404       .  A
C142        H149   1.084       .  S
C143        C144   1.397       .  A
C143        H150   1.084       .  S
C144        C145   1.402       .  A
C144        H151   1.083       .  S
C145        C146   1.401       .  A
C146        H152   1.084       .  S
C153        C154   1.405       .  A
C153        C158   1.411       .  A
C154        C155   1.396       .  A
C154        H163   1.083       .  S
C155        C156   1.401       .  A
C155        H164   1.084       .  S
C156        C162   1.402       .  A
C156        C157   1.412       .  A
C157        C159   1.406       .  A
C157        C158   1.408       .  A
C158        H165   1.084       .  S
C159        C160   1.403       .  A
C159        H166   1.084       .  S
C160        C161   1.405       .  A
C160        H167   1.082       .  S
C161        C162   1.406       .  A
C162        H168   1.084       .  S
C169        C170   1.405       .  A
C169        C174   1.406       .  A
C170        C171   1.400       .  A
C170        H571   1.082       .  S
C171        C172   1.404       .  A
C171        H180   1.083       .  S
C172        C178   1.404       .  A
C172        C173   1.412       .  A
C173        C175   1.402       .  A
C173        C174   1.400       .  A
C174        H181   1.084       .  S
C175        C176   1.396       .  A
C175        H182   1.083       .  S
C176        C177   1.404       .  A
C176        H183   1.083       .  S
C177        C178   1.409       .  A
C178        H184   1.084       .  S
H179        C562   1.082       .  S
C185        C186   1.406       .  A
C185        C190   1.407       .  A
C186        C187   1.398       .  A
C186        H195   1.083       .  S
C187        C188   1.402       .  A
C187        H196   1.084       .  S
C188        C194   1.405       .  A
C188        C189   1.414       .  A
C189        C191   1.402       .  A
C189        C190   1.405       .  A
C190        H197   1.084       .  S
C191        C192   1.398       .  A
C191        H198   1.084       .  S
C192        C193   1.405       .  A
C192        H199   1.081       .  S
C193        C194   1.406       .  A
C194        H200   1.084       .  S
C201        C202   1.406       .  A
C201        C206   1.404   1_655  A
C202        C203   1.404   1_655  A
C202        H995   1.082       .  S
C203        C204   1.407       .  A
C203        H212   1.084       .  S
C204        C210   1.409       .  A
C204        C205   1.413       .  A
C205        C207   1.399       .  A
C205        C206   1.396       .  A
C206        H213   1.085       .  S
C207        C208   1.391       .  A
C207        H214   1.084       .  S
C208        C209   1.402       .  A
C208        H215   1.083       .  S
C209        C210   1.408       .  A
C210        H216   1.084       .  S
H211        C986   1.082       .  S
C217        C218   1.403       .  A
C217        C222   1.409       .  A
C218        C219   1.395       .  A
C218        H227   1.083       .  S
C219        C220   1.402       .  A
C219        H228   1.084       .  S
C220        C226   1.399       .  A
C220        C221   1.411       .  A
C221        C223   1.405       .  A
C221        C222   1.408       .  A
C222        H229   1.084       .  S
C223        C224   1.404       .  A
C223        H230   1.083       .  S
C224        C225   1.408       .  A
C224        H231   1.080       .  S
C225        C226   1.411       .  A
C226        H232   1.083       .  S
C233        C234   1.406       .  A
C233        C238   1.408       .  A
C234        C235   1.397       .  A
C234        H635   1.081       .  S
C235        C236   1.402       .  A
C235        H244   1.084       .  S
C236        C242   1.402       .  A
C236        C237   1.412       .  A
C237        C239   1.403       .  A
C237        C238   1.403       .  A
C238        H245   1.084       .  S
C239        C240   1.399       .  A
C239        H246   1.084       .  S
C240        C241   1.405       .  A
C240        H247   1.083       .  S
C241        C242   1.408       .  A
C242        H248   1.084       .  S
H243        C626   1.080       .  S
C249        C250   1.414       .  A
C249        C254   1.416   1_556  A
C250        C251   1.400       .  A
C250        H259   1.080       .  S
C251        C252   1.400       .  A
C251        H260   1.084       .  S
C252        C258   1.408       .  A
C252        C253   1.412   1_556  A
C253        C255   1.404       .  A
C253        C254   1.407       .  A
C254        H261   1.081       .  S
C255        C256   1.398       .  A
C255        H262   1.083       .  S
C256        C257   1.405   1_554  A
C256        H263   1.083       .  S
C257        C258   1.407       .  A
C258        H264   1.084       .  S
C265        C266   1.407   1_655  A
C265       C1054   1.405   1_554  A
C266        C267   1.403       .  A
C266        H275   1.082       .  S
C267        C268   1.406   1_455  A
C267        H276   1.084       .  S
C268        C274   1.411   1_655  A
C268       C1053   1.410   1_554  A
C269        C271   1.398       .  A
C269        C270   1.403       .  A
C269       C1052   1.410   1_556  A
C270       C1049   1.405   1_556  A
C270        H277   1.079       .  S
C271        C272   1.395       .  A
C271        H278   1.084       .  S
C272       C1057   1.413       .  A
C272        H279   1.081       .  S
C273        C274   1.417   1_656  A
C273       C1056   1.413       .  A
C274        H280   1.081       .  S
C281        C286   1.407   1_556  A
C281        C674   1.406   1_545  A
C282        C283   1.399       .  A
C282        C673   1.406       .  A
C282        H291   1.083       .  S
C283        C284   1.402       .  A
C283        H292   1.084       .  S
C284        C290   1.406       .  A
C284        C677   1.415   1_556  A
C285        C287   1.404       .  A
C285        C286   1.409       .  A
C285        C676   1.416   1_554  A
C286        H293   1.084       .  S
C287        C288   1.399       .  A
C287        H294   1.084       .  S
C288        C289   1.403       .  A
C288        H295   1.083       .  S
C289        C682   1.405   1_554  A
C290        C681   1.405   1_556  A
C290        H296   1.084       .  S
C297        C298   1.406       .  A
C297        C302   1.409       .  A
C298        C299   1.398       .  A
C298        H307   1.083       .  S
C299        C300   1.403       .  A
C299        H308   1.084       .  S
C300        C306   1.404       .  A
C300        C301   1.412       .  A
C301        C303   1.403       .  A
C301        C302   1.406       .  A
C302        H309   1.084       .  S
C303        C304   1.400       .  A
C303        H310   1.084       .  S
C304        C305   1.406       .  A
C304       H1095   1.081       .  S
C305        C306   1.408       .  A
C306        H312   1.084       .  S
H311       C1088   1.081       .  S
C313        C314   1.404       .  A
C313        C318   1.407       .  A
C314        C315   1.397       .  A
C314        H323   1.082       .  S
C315        C316   1.403       .  A
C315        H324   1.084       .  S
C316        C322   1.399       .  A
C316        C317   1.412       .  A
C317        C319   1.404       .  A
C317        C318   1.401       .  A
C318        H325   1.084       .  S
C319        C320   1.398       .  A
C319        H326   1.083       .  S
C320        C321   1.404       .  A
C320        H327   1.083       .  S
C321        C322   1.409       .  A
C322        H328   1.084       .  S
C329        C330   1.402       .  A
C329        C334   1.405       .  A
C330        C331   1.404       .  A
C330        H339   1.083       .  S
C331        C332   1.407       .  A
C331        H340   1.083       .  S
C332        C338   1.406       .  A
C332        C333   1.413       .  A
C333        C335   1.402       .  A
C333        C334   1.398       .  A
C334        H341   1.083       .  S
C335        C336   1.394       .  A
C335        H342   1.083       .  S
C336        C337   1.401       .  A
C336        H343   1.083       .  S
C337        C338   1.406       .  A
C338        H344   1.084       .  S
C345        C346   1.405       .  A
C345        C350   1.408       .  A
C346        C347   1.399       .  A
C346        H355   1.081       .  S
C347        C348   1.403       .  A
C347        H356   1.083       .  S
C348        C354   1.404       .  A
C348        C349   1.412       .  A
C349        C351   1.403       .  A
C349        C350   1.403       .  A
C350        H357   1.084   1_545  S
C351        C352   1.398       .  A
C351        H358   1.083       .  S
C352        C353   1.405       .  A
C352        H359   1.083       .  S
C353        C354   1.410       .  A
C354        H360   1.084       .  S
C361        C362   1.405       .  A
C361        C366   1.410       .  A
C362        C363   1.396       .  A
C362        H371   1.083       .  S
C363        C364   1.402       .  A
C363        H372   1.084       .  S
C364        C370   1.402       .  A
C364        C365   1.412       .  A
C365        C367   1.404       .  A
C365        C366   1.406       .  A
C366        H373   1.084       .  S
C367        C368   1.401       .  A
C367        H374   1.084       .  S
C368        C369   1.407       .  A
C368        H375   1.081       .  S
C369        C370   1.407       .  A
C370        H376   1.084       .  S
C377        C378   1.402       .  A
C377        C382   1.412       .  A
C378        C379   1.391       .  A
C378        H387   1.083       .  S
C379        C380   1.399       .  A
C379        H388   1.084       .  S
C380        C386   1.397       .  A
C380        C381   1.409       .  A
C381        C383   1.406       .  A
C381        C382   1.414       .  A
C382        H389   1.084       .  S
C383        C384   1.408       .  A
C383        H390   1.083       .  S
C384        C385   1.411       .  A
C384        H391   1.078       .  S
C385        C386   1.412       .  A
C386        H392   1.081       .  S
O393       Cr411   2.025       .  S
O393        C401   1.269       .  A
O394       Cr411   1.959       .  S
O394        C395   1.257       .  A
C395        O396   1.269       .  A
C395        C713   1.479       .  S
O396       Cr412   2.019       .  S
O397       Cr412   1.979       .  S
O397        C398   1.258       .  A
C398        O399   1.268       .  A
C398        C769   1.478       .  S
O399       Cr413   2.012       .  S
O400       Cr413   1.960       .  S
O400        C401   1.257       .  A
C401        C721   1.474       .  S
O402       Cr411   1.975       .  S
O402        C410   1.259       .  A
O403       Cr411   2.014       .  S
O403        C404   1.269       .  A
C404        O405   1.259       .  A
C404        C745   1.481       .  S
O405       Cr412   1.968       .  S
O406       Cr412   2.020       .  S
O406        C407   1.271       .  A
C407        O408   1.261       .  A
C407        C753   1.486       .  S
O408       Cr413   1.975       .  S
O409       Cr413   2.016       .  S
O409        C410   1.268       .  A
C410        C689   1.484       .  S
Cr411       O414   1.770       .  S
Cr412       O414   1.773       .  S
Cr413       O414   1.764       .  S
C415        C665   1.517       .  S
C415       C1204   1.412       .  A
C416        C417   1.417       .  A
C416        H421   1.077       .  S
C417        C641   1.508       .  S
C417        C418   1.412   1_455  A
C418       C1203   1.402       .  A
C418        H422   1.081   1_655  S
C419        C673   1.488       .  S
C419       C1202   1.402       .  A
C420       C1199   1.412       .  A
C420        H423   1.080       .  S
N424        C425   1.359   1_554  A
N424        C681   1.442       .  S
C425        C705   1.482       .  S
C425        C426   1.383       .  A
C426        H429   1.082       .  S
C427        C428   1.385       .  A
C427        H430   1.082       .  S
C428        C625   1.488       .  S
N431        C435   1.372       .  A
N431        C432   1.369   1_556  A
N431        C649   1.445       .  S
C432        C617   1.497       .  S
C432        C433   1.381       .  A
C433        C434   1.361   1_554  A
C433        H436   1.082       .  S
C434        C435   1.389       .  A
C434        H437   1.081       .  S
C435        C777   1.507       .  S
N438       C1226   1.361   1_554  A
N438        C439   1.364       .  A
N438        C657   1.447       .  S
C439        C593   1.487       .  S
C439        C440   1.387       .  A
C440       C1225   1.368   1_554  A
C440        H443   1.082       .  S
C441       C1224   1.368   1_556  A
C441        C442   1.377       .  A
C441        H444   1.083       .  S
C442        C729   1.471       .  S
C442       N1222   1.361   1_556  A
O445       Cr463   2.010       .  S
O445        C453   1.267       .  A
O446       Cr463   1.968       .  S
O446        C447   1.259       .  A
C447        O448   1.270       .  A
C447        C569   1.481       .  S
O448       Cr464   2.017       .  S
O449       Cr464   1.983       .  S
O449        C450   1.259       .  A
C450        O451   1.264       .  A
C450        C577   1.483       .  S
O451       Cr465   2.007       .  S
O452       Cr465   1.978       .  S
O452        C453   1.260       .  A
C453        C545   1.480       .  S
O454       Cr463   1.977       .  S
O454        C462   1.260       .  A
O455       Cr463   2.015       .  S
O455        C456   1.267       .  A
C456        O457   1.258       .  A
C456        C633   1.481       .  S
O457       Cr464   1.970       .  S
O458       Cr464   2.017       .  S
O458        C459   1.271       .  A
C459        O460   1.259       .  A
C459        C609   1.473       .  S
O460       Cr465   1.968       .  S
O461       Cr465   2.007       .  S
O461        C462   1.268       .  A
C462        C601   1.472       .  S
Cr463       O466   1.773       .  S
Cr464       O466   1.764       .  S
Cr465       O466   1.771       .  S
C467        C497   1.488   1_455  S
C467        C860   1.405   1_455  A
C467        C472   1.408       .  A
C468        C859   1.404   1_565  A
C468        C469   1.404       .  A
C468        H473   1.084       .  S
C469        C529   1.484       .  S
C469        C470   1.405       .  A
C470        C863   1.406   1_565  A
C470        H474   1.083       .  S
C471        C862   1.405       .  A
C471        C472   1.408       .  A
C472        H475   1.083       .  S
N476        C477   1.361       .  A
N476        C513   1.440       .  S
C477        C561   1.486       .  S
C477        C478   1.384       .  A
C478        H481   1.082       .  S
C479        C480   1.383       .  A
C479        H482   1.082       .  S
C480        C737   1.485       .  S
N483       C1271   1.359       .  A
N483        C484   1.361       .  A
N483        C505   1.438       .  S
C484        C697   1.489       .  S
C484        C485   1.385       .  A
C485       C1270   1.373       .  A
C485        H488   1.082       .  S
C486       C1269   1.373       .  A
C486        C487   1.383       .  A
C486        H489   1.082       .  S
C487        C553   1.485       .  S
C487       N1267   1.359       .  A
N490        C494   1.358       .  A
N490        C491   1.359       .  A
N490        C537   1.435       .  S
C491        C761   1.492       .  S
C491        C492   1.386       .  A
C492        C493   1.379       .  A
C492        H495   1.082       .  S
C493        C494   1.382       .  A
C493        H496   1.082       .  S
C494        C585   1.488       .  S
C497       C1282   1.407       .  A
C497        C502   1.406   1_655  A
C498       C1281   1.407       .  A
C498        C499   1.399       .  A
C498        H507   1.083       .  S
C499        C500   1.402       .  A
C499        H508   1.084       .  S
C500        C506   1.406       .  A
C500       C1285   1.415       .  A
C501       C1284   1.415   1_455  A
C501        C503   1.403       .  A
C501        C502   1.405       .  A
C502        H509   1.084       .  S
C503        C504   1.397       .  A
C503        H510   1.084       .  S
C504       C1289   1.401       .  A
C504        H511   1.083       .  S
C505       C1288   1.401       .  A
C505        C506   1.404       .  A
C506        H512   1.084       .  S
C513        C514   1.403       .  A
C514        C515   1.397       .  A
C514        H523   1.083       .  S
C515        C516   1.402       .  A
C515        H524   1.084       .  S
C516        C522   1.405       .  A
C517        C519   1.402       .  A
C517        C518   1.405       .  A
C518        H525   1.084       .  S
C519        C520   1.399       .  A
C519        H526   1.084       .  S
C520        H527   1.083       .  S
C521        C522   1.408   1_545  A
C522        H528   1.084       .  S
C529        C530   1.407       .  A
C529        C534   1.406       .  A
C530        C531   1.398       .  A
C530        H539   1.083       .  S
C531        C532   1.402       .  A
C531        H540   1.084       .  S
C532        C538   1.404       .  A
C532        C533   1.415       .  A
C533        C535   1.402       .  A
C533        C534   1.402       .  A
C534        H541   1.084       .  S
C535        C536   1.395       .  A
C535        H542   1.084       .  S
C536        C537   1.401       .  A
C536        H543   1.083       .  S
C537        C538   1.402       .  A
C538        H544   1.084       .  S
C545        C546   1.405       .  A
C545        C550   1.409       .  A
C546        C547   1.396       .  A
C546        H555   1.083       .  S
C547        C548   1.401       .  A
C547        H556   1.084       .  S
C548        C554   1.401       .  A
C548        C549   1.413       .  A
C549        C551   1.405       .  A
C549        C550   1.406       .  A
C550        H557   1.084       .  S
C551        C552   1.401       .  A
C551        H558   1.084       .  S
C552        C553   1.405       .  A
C552        H559   1.081       .  S
C553        C554   1.406       .  A
C554        H560   1.084       .  S
C561        C562   1.405       .  A
C561        C566   1.408       .  A
C562        C563   1.401       .  A
C563        C564   1.405       .  A
C563        H572   1.083       .  S
C564        C570   1.405       .  A
C564        C565   1.411       .  A
C565        C567   1.403       .  A
C565        C566   1.401       .  A
C566        H573   1.084   1_565  S
C567        C568   1.397       .  A
C567        H574   1.083       .  S
C568        C569   1.405       .  A
C568        H575   1.083       .  S
C569        C570   1.410       .  A
C570        H576   1.084       .  S
C577        C578   1.406       .  A
C577        C582   1.407       .  A
C578        C579   1.399       .  A
C578        H587   1.083       .  S
C579        C580   1.403       .  A
C579        H588   1.084       .  S
C580        C586   1.407       .  A
C580        C581   1.414       .  A
C581        C583   1.402       .  A
C581        C582   1.406       .  A
C582        H589   1.084       .  S
C583        C584   1.398       .  A
C583        H590   1.084       .  S
C584        C585   1.405       .  A
C584        H591   1.081       .  S
C585        C586   1.407       .  A
C586        H592   1.084       .  S
C593        C594   1.407       .  A
C593        C598   1.404   1_655  A
C594        C595   1.405   1_655  A
C594       H1387   1.082       .  S
C595        C596   1.407       .  A
C595        H604   1.084       .  S
C596        C602   1.410       .  A
C596        C597   1.413       .  A
C597        C599   1.399       .  A
C597        C598   1.396       .  A
C598        H605   1.085       .  S
C599        C600   1.390       .  A
C599        H606   1.084       .  S
C600        C601   1.403       .  A
C600        H607   1.083       .  S
C601        C602   1.409       .  A
C602        H608   1.084       .  S
H603       C1378   1.082       .  S
C609        C610   1.401       .  A
C609        C614   1.409       .  A
C610        C611   1.393       .  A
C610        H619   1.083       .  S
C611        C612   1.401       .  A
C611        H620   1.084       .  S
C612        C618   1.397       .  A
C612        C613   1.411       .  A
C613        C615   1.407       .  A
C613        C614   1.410       .  A
C614        H621   1.084       .  S
C615        C616   1.405       .  A
C615        H622   1.083       .  S
C616        C617   1.408       .  A
C616        H623   1.081       .  S
C617        C618   1.409       .  A
C618        H624   1.083       .  S
C625        C626   1.406   1_545  A
C625        C630   1.408       .  A
C626        C627   1.397       .  A
C627        C628   1.402       .  A
C627        H636   1.084       .  S
C628        C634   1.402       .  A
C628        C629   1.412       .  A
C629        C631   1.403       .  A
C629        C630   1.403   1_565  A
C630        H637   1.084       .  S
C631        C632   1.399       .  A
C631        H638   1.084   1_565  S
C632        C633   1.406       .  A
C632        H639   1.083       .  S
C633        C634   1.407       .  A
C634        H640   1.083       .  S
C641        C642   1.413       .  A
C641        C646   1.414   1_556  A
C642        C643   1.401       .  A
C642        H651   1.080       .  S
C643        C644   1.401       .  A
C643        H652   1.084       .  S
C644        C650   1.409       .  A
C644        C645   1.412   1_556  A
C645        C647   1.403       .  A
C645        C646   1.406       .  A
C646        H653   1.082       .  S
C647        C648   1.397       .  A
C647        H654   1.083       .  S
C648        C649   1.405   1_554  A
C648        H655   1.083       .  S
C649        C650   1.408       .  A
C650        H656   1.084       .  S
C657        C658   1.405   1_655  A
C657       C1446   1.405   1_554  A
C658        C659   1.403       .  A
C658        H667   1.082       .  S
C659        C660   1.406   1_455  A
C659        H668   1.083       .  S
C660        C666   1.412   1_655  A
C660       C1445   1.410   1_554  A
C661       C1444   1.410   1_556  A
C661        C663   1.397       .  A
C661        C662   1.405       .  A
C662       C1441   1.405   1_556  A
C662        H669   1.081       .  S
C663        C664   1.397       .  A
C663        H670   1.084       .  S
C664       C1449   1.416       .  A
C664        H671   1.079       .  S
C665       C1448   1.416       .  A
C665        C666   1.419   1_656  A
C666        H672   1.080       .  S
C673        C678   1.407   1_556  A
C674        C675   1.398       .  A
C674        H683   1.083       .  S
C675        C676   1.402   1_565  A
C675        H684   1.084       .  S
C676        C682   1.407       .  A
C677        C679   1.403       .  A
C677        C678   1.408       .  A
C678        H685   1.084       .  S
C679        C680   1.399       .  A
C679        H686   1.084       .  S
C680        C681   1.403       .  A
C680        H687   1.083       .  S
C682        H688   1.084   1_545  S
C689        C690   1.405       .  A
C689        C694   1.410       .  A
C690        C691   1.398       .  A
C690        H699   1.083       .  S
C691        C692   1.402       .  A
C691        H700   1.084       .  S
C692        C698   1.403       .  A
C692        C693   1.412       .  A
C693        C695   1.404       .  A
C693        C694   1.406       .  A
C694        H701   1.084       .  S
C695        C696   1.400       .  A
C695        H702   1.084       .  S
C696        C697   1.406       .  A
C696       H1487   1.081       .  S
C697        C698   1.408       .  A
C698        H704   1.084       .  S
H703       C1480   1.081       .  S
C705        C706   1.404       .  A
C705        C710   1.407       .  A
C706        C707   1.397       .  A
C706        H715   1.082       .  S
C707        C708   1.403       .  A
C707        H716   1.084       .  S
C708        C714   1.400       .  A
C708        C709   1.412       .  A
C709        C711   1.404       .  A
C709        C710   1.402       .  A
C710        H717   1.084       .  S
C711        C712   1.399       .  A
C711        H718   1.083       .  S
C712        C713   1.404       .  A
C712        H719   1.083       .  S
C713        C714   1.409       .  A
C714        H720   1.084       .  S
C721        C722   1.402       .  A
C721        C726   1.404       .  A
C722        C723   1.404       .  A
C722        H731   1.083       .  S
C723        C724   1.408       .  A
C723        H732   1.083       .  S
C724        C730   1.407       .  A
C724        C725   1.413       .  A
C725        C727   1.402       .  A
C725        C726   1.397       .  A
C726        H733   1.083       .  S
C727        C728   1.394       .  A
C727        H734   1.083       .  S
C728        C729   1.400       .  A
C728        H735   1.083       .  S
C729        C730   1.407       .  A
C730        H736   1.084       .  S
C737        C738   1.406       .  A
C737        C742   1.406       .  A
C738        C739   1.398       .  A
C738        H747   1.081       .  S
C739        C740   1.403       .  A
C739        H748   1.083       .  S
C740        C746   1.404       .  A
C740        C741   1.412       .  A
C741        C743   1.402       .  A
C741        C742   1.401       .  A
C742        H749   1.084       .  S
C743        C744   1.397       .  A
C743        H750   1.083       .  S
C744        C745   1.405       .  A
C744        H751   1.083       .  S
C745        C746   1.409       .  A
C746        H752   1.084       .  S
C753        C754   1.405       .  A
C753        C758   1.411       .  A
C754        C755   1.398       .  A
C754        H763   1.083       .  S
C755        C756   1.403       .  A
C755        H764   1.084       .  S
C756        C762   1.405       .  A
C756        C757   1.412       .  A
C757        C759   1.404       .  A
C757        C758   1.408       .  A
C758        H765   1.084       .  S
C759        C760   1.401       .  A
C759        H766   1.084       .  S
C760        C761   1.406       .  A
C760        H767   1.081       .  S
C761        C762   1.408       .  A
C762        H768   1.084       .  S
C769        C770   1.402       .  A
C769        C774   1.412       .  A
C770        C771   1.391       .  A
C770        H779   1.083       .  S
C771        C772   1.400       .  A
C771        H780   1.084       .  S
C772        C778   1.397       .  A
C772        C773   1.409       .  A
C773        C775   1.406       .  A
C773        C774   1.413       .  A
C774        H781   1.084       .  S
C775        C776   1.408       .  A
C775        H782   1.083       .  S
C776        C777   1.411       .  A
C776        H783   1.078       .  S
C777        C778   1.412       .  A
C778        H784   1.081       .  S
O785       Cr803   2.024       .  S
O785        C793   1.269       .  A
O786       Cr803   1.959       .  S
O786        C787   1.256       .  A
C787        O788   1.268       .  A
C787       C1105   1.477       .  S
O788       Cr804   2.014       .  S
O789       Cr804   1.981       .  S
O789        C790   1.258       .  A
C790        O791   1.268       .  A
C790       C1161   1.478       .  S
O791       Cr805   2.011       .  S
O792       Cr805   1.960       .  S
O792        C793   1.257       .  A
C793       C1113   1.474       .  S
O794       Cr803   1.974       .  S
O794        C802   1.259       .  A
O795       Cr803   2.017       .  S
O795        C796   1.270       .  A
C796        O797   1.259       .  A
C796       C1137   1.482       .  S
O797       Cr804   1.969       .  S
O798       Cr804   2.016       .  S
O798        C799   1.271       .  A
C799        O800   1.261       .  A
C799       C1145   1.482       .  S
O800       Cr805   1.972       .  S
O801       Cr805   2.016       .  S
O801        C802   1.268       .  A
C802       C1081   1.484       .  S
Cr803       O806   1.770       .  S
Cr804       O806   1.772       .  S
Cr805       O806   1.765       .  S
C807       C1057   1.510       .  S
C807       C1200   1.414       .  A
C808       C1199   1.416       .  A
C808        C809   1.419   1_565  A
C808        H813   1.074       .  S
C809       C1033   1.512       .  S
C809        C810   1.413       .  A
C810        H814   1.081       .  S
C811       C1065   1.488       .  S
C811       C1204   1.402   1_545  A
C812       C1203   1.401       .  A
C812        H815   1.081       .  S
N816       C1212   1.361       .  A
N816        C817   1.359   1_554  A
N816       C1073   1.442       .  S
C817       C1097   1.480       .  S
C817        C818   1.383       .  A
C818       C1211   1.373   1_556  A
C818        H821   1.082       .  S
C819       C1210   1.373   1_554  A
C819        C820   1.385       .  A
C819        H822   1.082       .  S
C820       C1017   1.487       .  S
C820       N1208   1.361       .  A
N823        C827   1.372       .  A
N823        C824   1.370   1_556  A
N823       C1041   1.443       .  S
C824       C1009   1.500       .  S
C824        C825   1.382       .  A
C825        C826   1.362   1_554  A
C825        H828   1.082       .  S
C826        C827   1.389       .  A
C826        H829   1.080       .  S
C827       C1169   1.509       .  S
N830        C831   1.364       .  A
N830       C1049   1.449       .  S
C831        C985   1.486       .  S
C831        C832   1.386       .  A
C832        H835   1.082       .  S
C833        C834   1.377   1_554  A
C833        H836   1.083   1_554  S
C834       C1121   1.472       .  S
O837       Cr855   2.014       .  S
O837        C845   1.269       .  A
O838       Cr855   1.969       .  S
O838        C839   1.258       .  A
C839        O840   1.268       .  A
C839        C961   1.479       .  S
O840       Cr856   2.014       .  S
O841       Cr856   1.983       .  S
O841        C842   1.260       .  A
C842        O843   1.264       .  A
C842        C969   1.482       .  S
O843       Cr857   2.005       .  S
O844       Cr857   1.979       .  S
O844        C845   1.260       .  A
C845        C937   1.483       .  S
O846       Cr855   1.976       .  S
O846        C854   1.259       .  A
O847       Cr855   2.019       .  S
O847        C848   1.268       .  A
C848        O849   1.258       .  A
C848       C1025   1.481       .  S
O849       Cr856   1.967       .  S
O850       Cr856   2.016       .  S
O850        C851   1.271       .  A
C851        O852   1.259       .  A
C851       C1001   1.475       .  S
O852       Cr857   1.969       .  S
O853       Cr857   2.006       .  S
O853        C854   1.267       .  A
C854        C993   1.472       .  S
Cr855       O858   1.772       .  S
Cr856       O858   1.764       .  S
Cr857       O858   1.770       .  S
C859        C889   1.485       .  S
C859        C864   1.408       .  A
C860        C861   1.405       .  A
C860        H865   1.083       .  S
C861        C921   1.485       .  S
C861        C862   1.404   1_655  A
C862        H866   1.083       .  S
C863       C1305   1.490       .  S
C863        C864   1.408       .  A
C864        H867   1.083       .  S
N868       C1264   1.359       .  A
N868        C869   1.358       .  A
N868        C905   1.438       .  S
C869        C953   1.483       .  S
C869        C870   1.384       .  A
C870       C1263   1.373       .  A
C870        H873   1.082       .  S
C871       C1262   1.371       .  A
C871        C872   1.383       .  A
C871        H874   1.082   1_565  S
C872       C1129   1.487   1_565  S
C872       N1260   1.361       .  A
N875        C876   1.361       .  A
N875        C897   1.437       .  S
C876       C1089   1.490   1_455  S
C876        C877   1.384       .  A
C877        H880   1.082       .  S
C878        C879   1.383       .  A
C878        H881   1.082       .  S
C879        C945   1.486       .  S
N882        C886   1.358       .  A
N882        C883   1.359       .  A
N882        C929   1.436       .  S
C883       C1153   1.490       .  S
C883        C884   1.386       .  A
C884        C885   1.376       .  A
C884        H887   1.082       .  S
C885        C886   1.382       .  A
C885        H888   1.082       .  S
C886        C977   1.485       .  S
C889        C894   1.405       .  A
C890        C891   1.399       .  A
C890        H899   1.083       .  S
C891        C892   1.402       .  A
C891        H900   1.084       .  S
C892        C898   1.406       .  A
C893        C895   1.402       .  A
C893        C894   1.404       .  A
C894        H901   1.084       .  S
C895        C896   1.396       .  A
C895        H902   1.084       .  S
C896        H903   1.083       .  S
C897        C898   1.404   1_455  A
C898        H904   1.084       .  S
C905        C906   1.402       .  A
C905       C1302   1.404       .  A
C906        C907   1.397       .  A
C906        H915   1.083       .  S
C907        C908   1.403       .  A
C907        H916   1.084       .  S
C908        C914   1.404       .  A
C908       C1301   1.414       .  A
C909       C1300   1.415   1_545  A
C909        C911   1.403       .  A
C909        C910   1.408       .  A
C910       C1297   1.405   1_545  A
C910        H917   1.084       .  S
C911        C912   1.400       .  A
C911        H918   1.084       .  S
C912       C1305   1.407       .  A
C912        H919   1.083       .  S
C913       C1255   1.488       .  S
C913       C1304   1.406       .  A
C913        C914   1.408       .  A
C914        H920   1.084       .  S
C921        C922   1.406       .  A
C921        C926   1.407       .  A
C922        C923   1.397       .  A
C922        H931   1.083       .  S
C923        C924   1.401       .  A
C923        H932   1.084       .  S
C924        C930   1.404       .  A
C924        C925   1.415       .  A
C925        C927   1.403       .  A
C925        C926   1.404       .  A
C926        H933   1.084       .  S
C927        C928   1.397       .  A
C927        H934   1.084       .  S
C928        C929   1.402       .  A
C928        H935   1.083       .  S
C929        C930   1.401       .  A
C930        H936   1.084       .  S
C937        C938   1.405       .  A
C937        C942   1.411       .  A
C938        C939   1.396       .  A
C938        H947   1.083       .  S
C939        C940   1.401       .  A
C939        H948   1.084       .  S
C940        C946   1.402       .  A
C940        C941   1.412       .  A
C941        C943   1.406       .  A
C941        C942   1.408       .  A
C942        H949   1.084       .  S
C943        C944   1.403       .  A
C943        H950   1.084       .  S
C944        C945   1.405       .  A
C944        H951   1.082       .  S
C945        C946   1.406       .  A
C946        H952   1.084       .  S
C953        C954   1.405       .  A
C953        C958   1.406       .  A
C954        C955   1.400       .  A
C954       H1355   1.082       .  S
C955        C956   1.404       .  A
C955        H964   1.083       .  S
C956        C962   1.404       .  A
C956        C957   1.412       .  A
C957        C959   1.402       .  A
C957        C958   1.400       .  A
C958        H965   1.084       .  S
C959        C960   1.396       .  A
C959        H966   1.083       .  S
C960        C961   1.404       .  A
C960        H967   1.083       .  S
C961        C962   1.409       .  A
C962        H968   1.084       .  S
H963       C1346   1.082       .  S
C969        C970   1.406       .  A
C969        C974   1.407       .  A
C970        C971   1.398       .  A
C970        H979   1.083       .  S
C971        C972   1.402       .  A
C971        H980   1.084       .  S
C972        C978   1.405       .  A
C972        C973   1.414       .  A
C973        C975   1.402       .  A
C973        C974   1.405       .  A
C974        H981   1.084       .  S
C975        C976   1.398       .  A
C975        H982   1.084       .  S
C976        C977   1.405       .  A
C976        H983   1.081       .  S
C977        C978   1.406       .  A
C978        H984   1.084       .  S
C985        C986   1.406       .  A
C985        C990   1.404       .  A
C986        C987   1.404       .  A
C987        C988   1.407       .  A
C987        H996   1.084       .  S
C988        C994   1.409       .  A
C988        C989   1.413       .  A
C989        C991   1.399       .  A
C989        C990   1.396       .  A
C990        H997   1.085       .  S
C991        C992   1.391       .  A
C991        H998   1.084       .  S
C992        C993   1.402       .  A
C992        H999   1.083       .  S
C993        C994   1.408       .  A
C994       H1000   1.084       .  S
C1001      C1002   1.403       .  A
C1001      C1006   1.409       .  A
C1002      C1003   1.395       .  A
C1002      H1011   1.083       .  S
C1003      C1004   1.402       .  A
C1003      H1012   1.084       .  S
C1004      C1010   1.399       .  A
C1004      C1005   1.411       .  A
C1005      C1007   1.405       .  A
C1005      C1006   1.408       .  A
C1006      H1013   1.084       .  S
C1007      C1008   1.404       .  A
C1007      H1014   1.083       .  S
C1008      C1009   1.408       .  A
C1008      H1015   1.080       .  S
C1009      C1010   1.411       .  A
C1010      H1016   1.083       .  S
C1017      C1018   1.406       .  A
C1017      C1022   1.408       .  A
C1018      C1019   1.397       .  A
C1018      H1419   1.081       .  S
C1019      C1020   1.402       .  A
C1019      H1028   1.084       .  S
C1020      C1026   1.402       .  A
C1020      C1021   1.412       .  A
C1021      C1023   1.403       .  A
C1021      C1022   1.403       .  A
C1022      H1029   1.084       .  S
C1023      C1024   1.399       .  A
C1023      H1030   1.084       .  S
C1024      C1025   1.405       .  A
C1024      H1031   1.083       .  S
C1025      C1026   1.408       .  A
C1026      H1032   1.084       .  S
H1027      C1410   1.080       .  S
C1033      C1034   1.414       .  A
C1033      C1038   1.416   1_556  A
C1034      C1035   1.400       .  A
C1034      H1043   1.080       .  S
C1035      C1036   1.400       .  A
C1035      H1044   1.084       .  S
C1036      C1042   1.408       .  A
C1036      C1037   1.412   1_556  A
C1037      C1039   1.404       .  A
C1037      C1038   1.407       .  A
C1038      H1045   1.081       .  S
C1039      C1040   1.398       .  A
C1039      H1046   1.083       .  S
C1040      C1041   1.405   1_554  A
C1040      H1047   1.083       .  S
C1041      C1042   1.407       .  A
C1042      H1048   1.084       .  S
C1049      C1050   1.407       .  A
C1050      C1051   1.403       .  A
C1050      H1059   1.082       .  S
C1051      C1052   1.406       .  A
C1051      H1060   1.084       .  S
C1052      C1058   1.411       .  A
C1053      C1055   1.398       .  A
C1053      C1054   1.403       .  A
C1054      H1061   1.079       .  S
C1055      C1056   1.395       .  A
C1055      H1062   1.084       .  S
C1056      H1063   1.081       .  S
C1057      C1058   1.417   1_556  A
C1058      H1064   1.081       .  S
C1065      C1458   1.406   1_545  A
C1065      C1070   1.407   1_556  A
C1066      C1457   1.406       .  A
C1066      C1067   1.399       .  A
C1066      H1075   1.083       .  S
C1067      C1068   1.402       .  A
C1067      H1076   1.084       .  S
C1068      C1074   1.406       .  A
C1068      C1461   1.415   1_556  A
C1069      C1460   1.416   1_554  A
C1069      C1071   1.404       .  A
C1069      C1070   1.409       .  A
C1070      H1077   1.084       .  S
C1071      C1072   1.399       .  A
C1071      H1078   1.084       .  S
C1072      C1073   1.403       .  A
C1072      H1079   1.083       .  S
C1073      C1466   1.405   1_554  A
C1074      C1465   1.405   1_556  A
C1074      H1080   1.084       .  S
C1081      C1082   1.406       .  A
C1081      C1086   1.409       .  A
C1082      C1083   1.398       .  A
C1082      H1091   1.083       .  S
C1083      C1084   1.403       .  A
C1083      H1092   1.084   1_655  S
C1084      C1090   1.404   1_655  A
C1084      C1085   1.412       .  A
C1085      C1087   1.403       .  A
C1085      C1086   1.406       .  A
C1086      H1093   1.084       .  S
C1087      C1088   1.400       .  A
C1087      H1094   1.084       .  S
C1088      C1089   1.406       .  A
C1089      C1090   1.408   1_655  A
C1090      H1096   1.084       .  S
C1097      C1098   1.404       .  A
C1097      C1102   1.407       .  A
C1098      C1099   1.397       .  A
C1098      H1107   1.082       .  S
C1099      C1100   1.403       .  A
C1099      H1108   1.084       .  S
C1100      C1106   1.399       .  A
C1100      C1101   1.412       .  A
C1101      C1103   1.404       .  A
C1101      C1102   1.401       .  A
C1102      H1109   1.084       .  S
C1103      C1104   1.398       .  A
C1103      H1110   1.083       .  S
C1104      C1105   1.404       .  A
C1104      H1111   1.083       .  S
C1105      C1106   1.409       .  A
C1106      H1112   1.084       .  S
C1113      C1114   1.402       .  A
C1113      C1118   1.405       .  A
C1114      C1115   1.404       .  A
C1114      H1123   1.083       .  S
C1115      C1116   1.407       .  A
C1115      H1124   1.083   1_655  S
C1116      C1122   1.406       .  A
C1116      C1117   1.413       .  A
C1117      C1119   1.402       .  A
C1117      C1118   1.398       .  A
C1118      H1125   1.083       .  S
C1119      C1120   1.394       .  A
C1119      H1126   1.083       .  S
C1120      C1121   1.401       .  A
C1120      H1127   1.083       .  S
C1121      C1122   1.406       .  A
C1122      H1128   1.084       .  S
C1129      C1130   1.405       .  A
C1129      C1134   1.408       .  A
C1130      C1131   1.399       .  A
C1130      H1139   1.081       .  S
C1131      C1132   1.403       .  A
C1131      H1140   1.083       .  S
C1132      C1138   1.404       .  A
C1132      C1133   1.412       .  A
C1133      C1135   1.403       .  A
C1133      C1134   1.403       .  A
C1134      H1141   1.084   1_545  S
C1135      C1136   1.398       .  A
C1135      H1142   1.083       .  S
C1136      C1137   1.405       .  A
C1136      H1143   1.083       .  S
C1137      C1138   1.410       .  A
C1138      H1144   1.084       .  S
C1145      C1146   1.405       .  A
C1145      C1150   1.410       .  A
C1146      C1147   1.396       .  A
C1146      H1155   1.083       .  S
C1147      C1148   1.402       .  A
C1147      H1156   1.084       .  S
C1148      C1154   1.402       .  A
C1148      C1149   1.412       .  A
C1149      C1151   1.404       .  A
C1149      C1150   1.406       .  A
C1150      H1157   1.084       .  S
C1151      C1152   1.401       .  A
C1151      H1158   1.084       .  S
C1152      C1153   1.407       .  A
C1152      H1159   1.081       .  S
C1153      C1154   1.407       .  A
C1154      H1160   1.084       .  S
C1161      C1162   1.402       .  A
C1161      C1166   1.412       .  A
C1162      C1163   1.391       .  A
C1162      H1171   1.083       .  S
C1163      C1164   1.399       .  A
C1163      H1172   1.084       .  S
C1164      C1170   1.397       .  A
C1164      C1165   1.409       .  A
C1165      C1167   1.406       .  A
C1165      C1166   1.414       .  A
C1166      H1173   1.084       .  S
C1167      C1168   1.408       .  A
C1167      H1174   1.083       .  S
C1168      C1169   1.411       .  A
C1168      H1175   1.078       .  S
C1169      C1170   1.412       .  A
C1170      H1176   1.081       .  S
O1177     Cr1195   2.025       .  S
O1177      C1185   1.269       .  A
O1178     Cr1195   1.959       .  S
O1178      C1179   1.257       .  A
C1179      O1180   1.269       .  A
C1179      C1497   1.479       .  S
O1180     Cr1196   2.019       .  S
O1181     Cr1196   1.979       .  S
O1181      C1182   1.258       .  A
C1182      O1183   1.268       .  A
C1182      C1553   1.478       .  S
O1183     Cr1197   2.012       .  S
O1184     Cr1197   1.960       .  S
O1184      C1185   1.257       .  A
C1185      C1505   1.474       .  S
O1186     Cr1195   1.975       .  S
O1186      C1194   1.259       .  A
O1187     Cr1195   2.014       .  S
O1187      C1188   1.269       .  A
C1188      O1189   1.259       .  A
C1188      C1529   1.481       .  S
O1189     Cr1196   1.968       .  S
O1190     Cr1196   2.020       .  S
O1190      C1191   1.271       .  A
C1191      O1192   1.261       .  A
C1191      C1537   1.486       .  S
O1192     Cr1197   1.975       .  S
O1193     Cr1197   2.016       .  S
O1193      C1194   1.268       .  A
C1194      C1473   1.484       .  S
Cr1195     O1198   1.770       .  S
Cr1196     O1198   1.773       .  S
Cr1197     O1198   1.764       .  S
C1199      C1449   1.517       .  S
C1200      C1201   1.417       .  A
C1200      H1205   1.077       .  S
C1201      C1425   1.508       .  S
C1201      C1202   1.412       .  A
C1202      H1206   1.081       .  S
C1203      C1457   1.488       .  S
C1204      H1207   1.080       .  S
N1208      C1209   1.359   1_554  A
N1208      C1465   1.442       .  S
C1209      C1489   1.482       .  S
C1209      C1210   1.383       .  A
C1210      H1213   1.082       .  S
C1211      C1212   1.385       .  A
C1211      H1214   1.082       .  S
C1212      C1409   1.488       .  S
N1215      C1219   1.372       .  A
N1215      C1216   1.369   1_556  A
N1215      C1433   1.445       .  S
C1216      C1401   1.497       .  S
C1216      C1217   1.381       .  A
C1217      C1218   1.361   1_554  A
C1217      H1220   1.082       .  S
C1218      C1219   1.389       .  A
C1218      H1221   1.081       .  S
C1219      C1561   1.507       .  S
N1222      C1223   1.364       .  A
N1222      C1441   1.447       .  S
C1223      C1377   1.487       .  S
C1223      C1224   1.387       .  A
C1224      H1227   1.082       .  S
C1225      C1226   1.377       .  A
C1225      H1228   1.083       .  S
C1226      C1513   1.471       .  S
O1229     Cr1247   2.010       .  S
O1229      C1237   1.267       .  A
O1230     Cr1247   1.968       .  S
O1230      C1231   1.259       .  A
C1231      O1232   1.270       .  A
C1231      C1353   1.481       .  S
O1232     Cr1248   2.017       .  S
O1233     Cr1248   1.983       .  S
O1233      C1234   1.259       .  A
C1234      O1235   1.264       .  A
C1234      C1361   1.483       .  S
O1235     Cr1249   2.007       .  S
O1236     Cr1249   1.978       .  S
O1236      C1237   1.260       .  A
C1237      C1329   1.480       .  S
O1238     Cr1247   1.977       .  S
O1238      C1246   1.260       .  A
O1239     Cr1247   2.015       .  S
O1239      C1240   1.267       .  A
C1240      O1241   1.258       .  A
C1240      C1417   1.481       .  S
O1241     Cr1248   1.970       .  S
O1242     Cr1248   2.017       .  S
O1242      C1243   1.271       .  A
C1243      O1244   1.259       .  A
C1243      C1393   1.473       .  S
O1244     Cr1249   1.968       .  S
O1245     Cr1249   2.007       .  S
O1245      C1246   1.268       .  A
C1246      C1385   1.472       .  S
Cr1247     O1250   1.773       .  S
Cr1248     O1250   1.764       .  S
Cr1249     O1250   1.771       .  S
C1251      C1281   1.488       .  S
C1251      C1256   1.408       .  A
C1252      C1253   1.404       .  A
C1252      H1257   1.084       .  S
C1253      C1313   1.484       .  S
C1253      C1254   1.405       .  A
C1254      H1258   1.083       .  S
C1255      C1256   1.408       .  A
C1256      H1259   1.083       .  S
N1260      C1261   1.361       .  A
N1260      C1297   1.440       .  S
C1261      C1345   1.486       .  S
C1261      C1262   1.384       .  A
C1262      H1265   1.082       .  S
C1263      C1264   1.383       .  A
C1263      H1266   1.082       .  S
C1264      C1521   1.485       .  S
N1267      C1268   1.361       .  A
N1267      C1289   1.438       .  S
C1268      C1481   1.489   1_455  S
C1268      C1269   1.385       .  A
C1269      H1272   1.082       .  S
C1270      C1271   1.383       .  A
C1270      H1273   1.082       .  S
C1271      C1337   1.485       .  S
N1274      C1278   1.358       .  A
N1274      C1275   1.359       .  A
N1274      C1321   1.435       .  S
C1275      C1545   1.492       .  S
C1275      C1276   1.386       .  A
C1276      C1277   1.379       .  A
C1276      H1279   1.082       .  S
C1277      C1278   1.382       .  A
C1277      H1280   1.082       .  S
C1278      C1369   1.488       .  S
C1281      C1286   1.406       .  A
C1282      C1283   1.399       .  A
C1282      H1291   1.083       .  S
C1283      C1284   1.402       .  A
C1283      H1292   1.084       .  S
C1284      C1290   1.406       .  A
C1285      C1287   1.403       .  A
C1285      C1286   1.405       .  A
C1286      H1293   1.084       .  S
C1287      C1288   1.397       .  A
C1287      H1294   1.084       .  S
C1288      H1295   1.083       .  S
C1289      C1290   1.404   1_455  A
C1290      H1296   1.084       .  S
C1297      C1298   1.403       .  A
C1298      C1299   1.397       .  A
C1298      H1307   1.083       .  S
C1299      C1300   1.402       .  A
C1299      H1308   1.084       .  S
C1300      C1306   1.405       .  A
C1301      C1303   1.402       .  A
C1301      C1302   1.405       .  A
C1302      H1309   1.084       .  S
C1303      C1304   1.399       .  A
C1303      H1310   1.084       .  S
C1304      H1311   1.083       .  S
C1305      C1306   1.408   1_545  A
C1306      H1312   1.084       .  S
C1313      C1314   1.407       .  A
C1313      C1318   1.406       .  A
C1314      C1315   1.398       .  A
C1314      H1323   1.083       .  S
C1315      C1316   1.402       .  A
C1315      H1324   1.084       .  S
C1316      C1322   1.404       .  A
C1316      C1317   1.415       .  A
C1317      C1319   1.402       .  A
C1317      C1318   1.402       .  A
C1318      H1325   1.084       .  S
C1319      C1320   1.395       .  A
C1319      H1326   1.084       .  S
C1320      C1321   1.401       .  A
C1320      H1327   1.083       .  S
C1321      C1322   1.402       .  A
C1322      H1328   1.084       .  S
C1329      C1330   1.405       .  A
C1329      C1334   1.409       .  A
C1330      C1331   1.396       .  A
C1330      H1339   1.083       .  S
C1331      C1332   1.401       .  A
C1331      H1340   1.084       .  S
C1332      C1338   1.401       .  A
C1332      C1333   1.413       .  A
C1333      C1335   1.405       .  A
C1333      C1334   1.406       .  A
C1334      H1341   1.084       .  S
C1335      C1336   1.401       .  A
C1335      H1342   1.084       .  S
C1336      C1337   1.405       .  A
C1336      H1343   1.081       .  S
C1337      C1338   1.406       .  A
C1338      H1344   1.084       .  S
C1345      C1346   1.405       .  A
C1345      C1350   1.408       .  A
C1346      C1347   1.401       .  A
C1347      C1348   1.405       .  A
C1347      H1356   1.083       .  S
C1348      C1354   1.405       .  A
C1348      C1349   1.411       .  A
C1349      C1351   1.403       .  A
C1349      C1350   1.401       .  A
C1350      H1357   1.084   1_565  S
C1351      C1352   1.397       .  A
C1351      H1358   1.083       .  S
C1352      C1353   1.405       .  A
C1352      H1359   1.083       .  S
C1353      C1354   1.410       .  A
C1354      H1360   1.084       .  S
C1361      C1362   1.406       .  A
C1361      C1366   1.407       .  A
C1362      C1363   1.399       .  A
C1362      H1371   1.083       .  S
C1363      C1364   1.403       .  A
C1363      H1372   1.084       .  S
C1364      C1370   1.407       .  A
C1364      C1365   1.414       .  A
C1365      C1367   1.402       .  A
C1365      C1366   1.406       .  A
C1366      H1373   1.084       .  S
C1367      C1368   1.398       .  A
C1367      H1374   1.084       .  S
C1368      C1369   1.405       .  A
C1368      H1375   1.081       .  S
C1369      C1370   1.407       .  A
C1370      H1376   1.084       .  S
C1377      C1378   1.407       .  A
C1377      C1382   1.404       .  A
C1378      C1379   1.405       .  A
C1379      C1380   1.407       .  A
C1379      H1388   1.084       .  S
C1380      C1386   1.410       .  A
C1380      C1381   1.413       .  A
C1381      C1383   1.399       .  A
C1381      C1382   1.396       .  A
C1382      H1389   1.085       .  S
C1383      C1384   1.390       .  A
C1383      H1390   1.084       .  S
C1384      C1385   1.403       .  A
C1384      H1391   1.083       .  S
C1385      C1386   1.409       .  A
C1386      H1392   1.084       .  S
C1393      C1394   1.401       .  A
C1393      C1398   1.409       .  A
C1394      C1395   1.393       .  A
C1394      H1403   1.083       .  S
C1395      C1396   1.401       .  A
C1395      H1404   1.084       .  S
C1396      C1402   1.397       .  A
C1396      C1397   1.411       .  A
C1397      C1399   1.407       .  A
C1397      C1398   1.410       .  A
C1398      H1405   1.084       .  S
C1399      C1400   1.405       .  A
C1399      H1406   1.083       .  S
C1400      C1401   1.408       .  A
C1400      H1407   1.081       .  S
C1401      C1402   1.409       .  A
C1402      H1408   1.083       .  S
C1409      C1410   1.406   1_545  A
C1409      C1414   1.408       .  A
C1410      C1411   1.397       .  A
C1411      C1412   1.402       .  A
C1411      H1420   1.084       .  S
C1412      C1418   1.402       .  A
C1412      C1413   1.412       .  A
C1413      C1415   1.403       .  A
C1413      C1414   1.403   1_565  A
C1414      H1421   1.084       .  S
C1415      C1416   1.399       .  A
C1415      H1422   1.084   1_565  S
C1416      C1417   1.406       .  A
C1416      H1423   1.083       .  S
C1417      C1418   1.407       .  A
C1418      H1424   1.083       .  S
C1425      C1426   1.413       .  A
C1425      C1430   1.414   1_556  A
C1426      C1427   1.401       .  A
C1426      H1435   1.080       .  S
C1427      C1428   1.401       .  A
C1427      H1436   1.084       .  S
C1428      C1434   1.409       .  A
C1428      C1429   1.412   1_556  A
C1429      C1431   1.403       .  A
C1429      C1430   1.406       .  A
C1430      H1437   1.082       .  S
C1431      C1432   1.397       .  A
C1431      H1438   1.083       .  S
C1432      C1433   1.405   1_554  A
C1432      H1439   1.083       .  S
C1433      C1434   1.408       .  A
C1434      H1440   1.084       .  S
C1441      C1442   1.405       .  A
C1442      C1443   1.403       .  A
C1442      H1451   1.082       .  S
C1443      C1444   1.406       .  A
C1443      H1452   1.083       .  S
C1444      C1450   1.412       .  A
C1445      C1447   1.397       .  A
C1445      C1446   1.405       .  A
C1446      H1453   1.081       .  S
C1447      C1448   1.397       .  A
C1447      H1454   1.084       .  S
C1448      H1455   1.079       .  S
C1449      C1450   1.419   1_556  A
C1450      H1456   1.080       .  S
C1457      C1462   1.407   1_556  A
C1458      C1459   1.398       .  A
C1458      H1467   1.083       .  S
C1459      C1460   1.402   1_565  A
C1459      H1468   1.084       .  S
C1460      C1466   1.407       .  A
C1461      C1463   1.403       .  A
C1461      C1462   1.408       .  A
C1462      H1469   1.084       .  S
C1463      C1464   1.399       .  A
C1463      H1470   1.084       .  S
C1464      C1465   1.403       .  A
C1464      H1471   1.083       .  S
C1466      H1472   1.084   1_545  S
C1473      C1474   1.405       .  A
C1473      C1478   1.410       .  A
C1474      C1475   1.398       .  A
C1474      H1483   1.083       .  S
C1475      C1476   1.402       .  A
C1475      H1484   1.084   1_655  S
C1476      C1482   1.403   1_655  A
C1476      C1477   1.412       .  A
C1477      C1479   1.404       .  A
C1477      C1478   1.406       .  A
C1478      H1485   1.084       .  S
C1479      C1480   1.400       .  A
C1479      H1486   1.084       .  S
C1480      C1481   1.406       .  A
C1481      C1482   1.408   1_655  A
C1482      H1488   1.084       .  S
C1489      C1490   1.404       .  A
C1489      C1494   1.407       .  A
C1490      C1491   1.397       .  A
C1490      H1499   1.082       .  S
C1491      C1492   1.403       .  A
C1491      H1500   1.084       .  S
C1492      C1498   1.400       .  A
C1492      C1493   1.412       .  A
C1493      C1495   1.404       .  A
C1493      C1494   1.402       .  A
C1494      H1501   1.084       .  S
C1495      C1496   1.399       .  A
C1495      H1502   1.083       .  S
C1496      C1497   1.404       .  A
C1496      H1503   1.083       .  S
C1497      C1498   1.409       .  A
C1498      H1504   1.084       .  S
C1505      C1506   1.402       .  A
C1505      C1510   1.404       .  A
C1506      C1507   1.404       .  A
C1506      H1515   1.083       .  S
C1507      C1508   1.408       .  A
C1507      H1516   1.083   1_655  S
C1508      C1514   1.407       .  A
C1508      C1509   1.413       .  A
C1509      C1511   1.402       .  A
C1509      C1510   1.397       .  A
C1510      H1517   1.083       .  S
C1511      C1512   1.394       .  A
C1511      H1518   1.083       .  S
C1512      C1513   1.400       .  A
C1512      H1519   1.083       .  S
C1513      C1514   1.407       .  A
C1514      H1520   1.084       .  S
C1521      C1522   1.406       .  A
C1521      C1526   1.406       .  A
C1522      C1523   1.398       .  A
C1522      H1531   1.081       .  S
C1523      C1524   1.403       .  A
C1523      H1532   1.083       .  S
C1524      C1530   1.404       .  A
C1524      C1525   1.412       .  A
C1525      C1527   1.402       .  A
C1525      C1526   1.401       .  A
C1526      H1533   1.084       .  S
C1527      C1528   1.397       .  A
C1527      H1534   1.083       .  S
C1528      C1529   1.405       .  A
C1528      H1535   1.083       .  S
C1529      C1530   1.409       .  A
C1530      H1536   1.084       .  S
C1537      C1538   1.405       .  A
C1537      C1542   1.411       .  A
C1538      C1539   1.398       .  A
C1538      H1547   1.083       .  S
C1539      C1540   1.403       .  A
C1539      H1548   1.084       .  S
C1540      C1546   1.405       .  A
C1540      C1541   1.412       .  A
C1541      C1543   1.404       .  A
C1541      C1542   1.408       .  A
C1542      H1549   1.084       .  S
C1543      C1544   1.401       .  A
C1543      H1550   1.084       .  S
C1544      C1545   1.406       .  A
C1544      H1551   1.081       .  S
C1545      C1546   1.408       .  A
C1546      H1552   1.084       .  S
C1553      C1554   1.402       .  A
C1553      C1558   1.412       .  A
C1554      C1555   1.391       .  A
C1554      H1563   1.083       .  S
C1555      C1556   1.400       .  A
C1555      H1564   1.084       .  S
C1556      C1562   1.397       .  A
C1556      C1557   1.409       .  A
C1557      C1559   1.406       .  A
C1557      C1558   1.413       .  A
C1558      H1565   1.084       .  S
C1559      C1560   1.408       .  A
C1559      H1566   1.083       .  S
C1560      C1561   1.411       .  A
C1560      H1567   1.078       .  S
C1561      C1562   1.412       .  A
C1562      H1568   1.081       .  S
