geometry optimzed in LAMMPS
_audit_creation_date              2020-12-01 
_audit_creation_method            'lammps2cif' 
_symmetry_space_group_name_H-M    'P1' 
_symmetry_Int_Tables_number       1 
_symmetry_cell_setting            triclinic 
loop_ 
_symmetry_equiv_pos_as_xyz 
  x,y,z 
_cell_length_a                    39.29326069 
_cell_length_b                    39.30321420907742 
_cell_length_c                    39.28403136889121 
_cell_angle_alpha                 89.85011049656998 
_cell_angle_beta                  89.80863110583691 
_cell_angle_gamma                 89.92339502052594 
loop_ 
_atom_site_label 
_atom_site_type_symbol 
_atom_site_fract_x 
_atom_site_fract_y 
_atom_site_fract_z 
_atom_site_charge 
C1          C  0.45440460  0.57936234  0.89968310     0.42800
N2          N  0.46146221  0.54533118  0.94192101     0.01700
C3          C  0.60076807  0.52943036  0.04724209    -0.06100
H4          H  0.62283344  0.50969607  0.91147712     0.07200
C5          C  0.55027798  0.41091900  0.91834627    -0.06500
Co6        Co  0.52476738  0.56050326  0.98050864     0.74200
N7          N  0.58315339  0.52752383  0.94509414    -0.25700
Co8        Co  0.57813513  0.49021712  0.98218107     0.74100
C9          C  0.58253243  0.42021566  0.90211048     0.42900
N10         N  0.47219867  0.44344312  0.94145792     0.01300
N11         N  0.57358032  0.45280201  0.94502906     0.01400
N12         N  0.56563462  0.57495420  0.04504901    -0.46500
H13         H  0.50425962  0.60780920  0.91172549     0.07200
N14         N  0.56256607  0.55406031  0.94401436     0.01700
N15         N  0.57098398  0.45304564  0.01898981     0.01500
C16         C  0.57740670  0.42092947  0.06251337     0.43100
N17         N  0.45232813  0.47055865  0.94083671    -0.25100
C18         C  0.48428778  0.58432892  0.04408683    -0.06100
N19         N  0.44067370  0.55268204  0.91651241    -0.46200
N20         N  0.59133559  0.44692153  0.04497230    -0.46500
C21         C  0.45303987  0.57370221  0.06129155     0.42900
N22         N  0.56094005  0.55448388  0.01875761     0.01700
N23         N  0.44932596  0.46956951  0.01518314    -0.25200
N24         N  0.48821190  0.56547727  0.94276959    -0.25600
N25         N  0.46961225  0.44288015  0.01606393     0.01400
H26         H  0.40885601  0.48678105  0.04775569     0.07300
H27         H  0.52788953  0.39175931  0.05117405     0.07300
N28         N  0.58105068  0.52762680  0.01949856    -0.25700
N29         N  0.54689698  0.43253763  0.94440845    -0.25300
N30         N  0.45976864  0.54403226  0.01611595     0.01700
C31         C  0.59346001  0.55877792  0.89953617     0.43100
C32         C  0.43394128  0.47019312  0.91223636    -0.06600
N33         N  0.54428857  0.43273945  0.01840290    -0.25300
H34         H  0.53213541  0.39142102  0.91168199     0.07300
N35         N  0.56744190  0.57317246  0.91666885    -0.46500
H36         H  0.41604858  0.48951685  0.90422002     0.07300
C37         C  0.43766344  0.43705855  0.06017297     0.43000
C38         C  0.48607127  0.58787715  0.91709780    -0.06100
Co39       Co  0.45474093  0.50739971  0.97845481     0.73800
N40         N  0.46862335  0.42417877  0.91409460    -0.46200
C41         C  0.59010975  0.56066859  0.06444150     0.43200
N42         N  0.43925347  0.54867079  0.04242814    -0.46200
Co43       Co  0.50801329  0.43693542  0.98009468     0.73900
C44         C  0.54607521  0.41147118  0.04505733    -0.06600
C45         C  0.60398615  0.52858503  0.91812355    -0.06100
N46         N  0.48645763  0.56430700  0.01671636    -0.25700
N47         N  0.59537943  0.44642055  0.92010971    -0.46400
H48         H  0.61994890  0.51105852  0.05434826     0.07200
C49         C  0.42795703  0.46794056  0.04172369    -0.06500
Cl50       Cl  0.51640954  0.49875209  0.98027702    -0.49500
C51         C  0.44489808  0.43956190  0.89465366     0.43000
H52         H  0.50286259  0.60319835  0.05132966     0.07200
N53         N  0.46373107  0.42298878  0.04266796    -0.46300
C54         C  0.43049859  0.92449325  0.54532682     0.42800
N55         N  0.46260069  0.96824084  0.54117807     0.01700
C56         C  0.48656364  0.07067181  0.40013727    -0.06100
H57         H  0.50095575  0.93532811  0.38086867     0.07200
C58         C  0.59988733  0.93963959  0.45677654    -0.06500
Co59       Co  0.45051503  0.00718558  0.47683007     0.74200
N60         N  0.48383933  0.96956407  0.41999555    -0.25700
Co61       Co  0.52258929  0.00489163  0.42562014     0.74100
C62         C  0.59185419  0.92374038  0.42419980     0.42900
N63         N  0.56459452  0.96488736  0.53370401     0.01300
N64         N  0.55851555  0.96631132  0.43213472     0.01400
N65         N  0.44022392  0.07159368  0.43426860    -0.46500
H66         H  0.40457863  0.93596547  0.49418301     0.07200
N67         N  0.45627181  0.97059785  0.43920718     0.01700
N68         N  0.56093846  0.04044128  0.43295677     0.01500
C69         C  0.59508337  0.08257636  0.42660498     0.43100
N70         N  0.53706103  0.96507318  0.55302774    -0.25100
C71         C  0.42847299  0.07279004  0.51579217    -0.06100
N72         N  0.45570847  0.94170108  0.56079794    -0.46200
N73         N  0.56887036  0.06580434  0.41227295    -0.46500
C74         C  0.43827383  0.08903345  0.54760965     0.42900
N75         N  0.45937885  0.04457341  0.44030623     0.01700
N76         N  0.53965861  0.03940193  0.55419929    -0.25200
N77         N  0.44364030  0.96933186  0.51353638    -0.25600
N78         N  0.56683114  0.03885260  0.53440660     0.01400
H79         H  0.52178556  0.07523318  0.59179834     0.07300
H80         H  0.62189581  0.07048357  0.47749012     0.07300
N81         N  0.48673615  0.04354237  0.42082386    -0.25700
N82         N  0.57786932  0.96553623  0.45947829    -0.25300
N83         N  0.46551788  0.04221356  0.54249853     0.01700
C84         C  0.44889696  0.92737142  0.40708629     0.43100
C85         C  0.53759762  0.93753839  0.57323766    -0.06600
N86         N  0.58022903  0.03948043  0.46030119    -0.25300
H87         H  0.61974416  0.93380213  0.47485270     0.07300
N88         N  0.43483690  0.94563403  0.43251779    -0.46500
H89         H  0.51838141  0.93061933  0.59174163     0.07300
C90         C  0.57247513  0.08418163  0.56378181     0.43000
C91         C  0.42260705  0.94249027  0.51382688    -0.06100
Co92       Co  0.50106273  0.00363392  0.54873515     0.73800
N93         N  0.58444400  0.93839269  0.53956615    -0.46200
C94         C  0.45563843  0.08932625  0.40913180     0.43200
N95         N  0.46137179  0.06876372  0.56272474    -0.46200
Co96       Co  0.57316500  0.00215179  0.49724820     0.73900
C97         C  0.60273148  0.06504365  0.45860348    -0.06600
C98         C  0.48158217  0.94303488  0.39885745    -0.06100
N99         N  0.44672132  0.04397351  0.51478993    -0.25700
N100        N  0.56622852  0.94193913  0.41022086    -0.46400
H101        H  0.50590288  0.07659787  0.38152164     0.07200
C102        C  0.54116926  0.06705248  0.57404087    -0.06500
Cl103      Cl  0.51180968  0.00441992  0.48707980    -0.49500
C104        C  0.56919066  0.92017202  0.56432597     0.43000
H105        H  0.41147447  0.08188820  0.49619650     0.07200
N106        N  0.58681507  0.06541691  0.53895827    -0.46300
C107        C  0.94022829  0.56829550  0.55881246     0.42800
N108        N  0.98303998  0.53553387  0.55015299     0.01700
C109        C  0.08712650  0.53232074  0.40872884    -0.06100
H110        H  0.95265028  0.52247289  0.38523572     0.07200
C111        C  0.95479959  0.41450238  0.44674847    -0.06500
Co112      Co  0.02256742  0.55766716  0.48876111     0.74200
N113        N  0.98551092  0.53336409  0.42744194    -0.25700
Co114      Co  0.02121526  0.49404719  0.42782166     0.74100
C115        C  0.93963144  0.42826998  0.41577397     0.42900
N116        N  0.97943907  0.43630636  0.52818266     0.01300
N117        N  0.98297023  0.45810054  0.42862187     0.01400
N118        N  0.08757244  0.57395926  0.44843768    -0.46500
H119        H  0.95508527  0.60299270  0.51397203     0.07200
N120        N  0.98570938  0.55763086  0.45056450     0.01700
N121        N  0.05663864  0.45451624  0.42991193     0.01500
C122        C  0.09897876  0.42145917  0.42065855     0.43100
N123        N  0.98046275  0.45983407  0.55206024    -0.25100
C124        C  0.08714577  0.57453536  0.53019516    -0.06100
N125        N  0.95611787  0.53992021  0.57014781    -0.46200
N126        N  0.08285935  0.44959430  0.40923717    -0.46500
C127        C  0.10464969  0.55983623  0.55929308     0.42900
N128        N  0.06033614  0.55436100  0.45151400     0.01700
N129        N  0.05470776  0.45726550  0.55259471    -0.25200
N130        N  0.98520843  0.55899395  0.52614640    -0.25600
N131        N  0.05396138  0.43309601  0.52939479     0.01400
H132        H  0.09089410  0.46964479  0.59191237     0.07300
H133        H  0.08630764  0.38821132  0.46711560     0.07300
N134        N  0.05965601  0.52983779  0.42868943    -0.25700
N135        N  0.98146234  0.43472363  0.45270808    -0.25300
N136        N  0.05825137  0.53244241  0.55092830     0.01700
C137        C  0.94249356  0.56933246  0.41916533     0.43100
C138        C  0.95333171  0.45591729  0.57248932    -0.06600
N139        N  0.05501089  0.43153928  0.45438345    -0.25300
H140        H  0.94686706  0.39333904  0.46250084     0.07300
N141        N  0.96038861  0.57962628  0.44661071    -0.46500
H142        H  0.94710275  0.47168092  0.59412595     0.07300
C143        C  0.09941190  0.42324526  0.55761528     0.43000
C144        C  0.95973060  0.58113859  0.53004224    -0.06100
Co145      Co  0.01904450  0.49630711  0.55256740     0.73800
N146        N  0.95206525  0.41683620  0.53032459    -0.46200
C147        C  0.10578119  0.56120194  0.42221954     0.43200
N148        N  0.08557754  0.53354806  0.57064459    -0.46200
Co149      Co  0.01733081  0.43308836  0.49131196     0.73900
C150        C  0.08077076  0.40959168  0.45066840    -0.06600
C151        C  0.95931544  0.53865597  0.40638120    -0.06100
N152        N  0.05902035  0.55576777  0.52671648    -0.25700
N153        N  0.95820978  0.45539714  0.40618156    -0.46400
H154        H  0.09324117  0.51575282  0.38765340     0.07200
C155        C  0.08248840  0.45297246  0.57180089    -0.06500
Cl156      Cl  0.01997096  0.49527228  0.49012464    -0.49500
C157        C  0.93447102  0.42760006  0.55776092     0.43000
H158        H  0.09522464  0.59474937  0.51331056     0.07200
N159        N  0.08067729  0.41264864  0.53105557    -0.46300
C160        C  0.71568872  0.35219189  0.32707886     0.80600
N161        N  0.69873710  0.36197748  0.29870654    -0.77700
C162        C  0.67201550  0.34355206  0.28709566     0.83000
N163        N  0.66209369  0.31528670  0.30437707    -0.77600
C164        C  0.67906794  0.30521061  0.33267142     0.83100
N165        N  0.70579163  0.32369097  0.34390902    -0.79400
C166        C  0.72625626  0.66719017  0.32038244     0.80600
N167        N  0.71026848  0.65090670  0.29453883    -0.77700
C168        C  0.68289323  0.66535467  0.27908621     0.83000
N169        N  0.67184782  0.69652648  0.28939412    -0.77600
C170        C  0.68819973  0.71330657  0.31479173     0.83100
N171        N  0.71526698  0.69839569  0.33011698    -0.79400
C172        C  0.65495118  0.35731316  0.66454825     0.80600
N173        N  0.68415145  0.37003274  0.65117665    -0.77700
C174        C  0.69635105  0.35825470  0.62108507     0.83000
N175        N  0.67983216  0.33252635  0.60517921    -0.77600
C176        C  0.65060080  0.31953598  0.61839959     0.83100
N177        N  0.63836373  0.33192079  0.64825444    -0.79400
C178        C  0.36099385  0.70206570  0.32631916     0.80600
N179        N  0.37595430  0.68879787  0.29820977    -0.77700
C180        C  0.36401375  0.65961901  0.28434405     0.83000
N181        N  0.33721858  0.64342283  0.29901324    -0.77600
C182        C  0.32250269  0.65636061  0.32747041     0.83100
N183        N  0.33430984  0.68578094  0.34084218    -0.79400
C184        C  0.37295542  0.68717273  0.62018365     0.80600
N185        N  0.38617728  0.67768029  0.65061891    -0.77700
C186        C  0.37591541  0.64854338  0.66601975     0.83000
N187        N  0.35172660  0.62913541  0.65104263    -0.77600
C188        C  0.33781244  0.63836824  0.62075635     0.83100
N189        N  0.34837859  0.66773643  0.60569110    -0.79400
C190        C  0.38098653  0.37056875  0.65784312     0.80600
N191        N  0.35423568  0.38529023  0.64182540    -0.77700
C192        C  0.34223422  0.37238750  0.61220565     0.83000
N193        N  0.35714137  0.34409765  0.59914292    -0.77600
C194        C  0.38413358  0.32914892  0.61474947     0.83100
N195        N  0.39572440  0.34248926  0.64432437    -0.79400
C196        C  0.66748664  0.64917042  0.67378482     0.80600
N197        N  0.69707097  0.63815229  0.65999491    -0.77700
C198        C  0.71035445  0.65369076  0.63211773     0.83000
N199        N  0.69396255  0.68087939  0.61817504    -0.77600
C200        C  0.66407181  0.69210075  0.63179060     0.83100
N201        N  0.65119740  0.67597673  0.65958482    -0.79400
C202        C  0.38103446  0.32419357  0.33908132     0.80600
N203        N  0.35414752  0.33633693  0.35709686    -0.77700
C204        C  0.33666743  0.36412166  0.34628326     0.83000
N205        N  0.34650972  0.37973086  0.31698787    -0.77600
C206        C  0.37354666  0.36806609  0.29892725     0.83100
N207        N  0.39071342  0.34026670  0.31003865    -0.79400
C208        C  0.18036898  0.38342080  0.58875564    -0.01600
C209        C  0.20513845  0.40302743  0.57162203     0.07000
C210        C  0.19498556  0.42799944  0.54824096    -0.07600
C211        C  0.16042390  0.43454778  0.54282612     0.04400
C212        C  0.13573189  0.41572836  0.56096898    -0.14800
C213        C  0.14584383  0.38994986  0.58334437    -0.08200
C214        C  0.24159379  0.39925854  0.57975367     0.05300
C215        C  0.26290354  0.38134575  0.55752587    -0.09300
C216        C  0.29687068  0.37486478  0.56601137     0.00300
C217        C  0.30946400  0.38510187  0.59817568     0.00200
C218        C  0.28839806  0.40503532  0.61930798    -0.12800
C219        C  0.25481039  0.41219617  0.61029839     0.00700
C220        C  0.31801292  0.35807517  0.54101146     0.40000
C221        C  0.23395932  0.43203459  0.63322591     0.36600
C222        C  0.18989993  0.35677448  0.61224380     0.36300
C223        C  0.15085435  0.46100691  0.51908596     0.37100
N224        N  0.33493964  0.34493125  0.52076062    -0.43700
N225        N  0.21715173  0.44803347  0.65139550    -0.44200
N226        N  0.14316717  0.48220667  0.50009138    -0.41500
N227        N  0.19759383  0.33540300  0.63102741    -0.43000
H228        H  0.12676797  0.37532213  0.59699272     0.13200
H229        H  0.21405456  0.44293233  0.53494141     0.09700
H230        H  0.25271210  0.37151496  0.53397320     0.10800
H231        H  0.29753597  0.41395337  0.64369800     0.16600
C232        C  0.19783868  0.54573809  0.57870849    -0.01600
C233        C  0.20975656  0.57948262  0.58157112     0.07000
C234        C  0.18665538  0.60649393  0.57803219    -0.07600
C235        C  0.15229192  0.60052087  0.57147180     0.04400
C236        C  0.14017336  0.56686058  0.56914187    -0.14800
C237        C  0.16306110  0.53966501  0.57332548    -0.08200
C238        C  0.24589584  0.58813533  0.58853293     0.05300
C239        C  0.26284211  0.61005434  0.56590509    -0.09300
C240        C  0.29380139  0.62528132  0.57464553     0.00300
C241        C  0.30850776  0.61861202  0.60691615     0.00200
C242        C  0.29286128  0.59416444  0.62811955    -0.12800
C243        C  0.26177277  0.57926721  0.61943052     0.00700
C244        C  0.30898693  0.64822895  0.55018008     0.40000
C245        C  0.24560185  0.55703155  0.64391737     0.36600
C246        C  0.22102377  0.51723861  0.57929311     0.36300
C247        C  0.12996040  0.62949781  0.56777351     0.37100
N248        N  0.32091994  0.66663695  0.53044450    -0.43700
N249        N  0.23284298  0.53907372  0.66354206    -0.44200
N250        N  0.11218788  0.65279786  0.56469835    -0.41500
N251        N  0.23989395  0.49462046  0.57961980    -0.43000
H252        H  0.15405003  0.51376178  0.57092714     0.13200
H253        H  0.19558530  0.63246787  0.58034555     0.09700
H254        H  0.25092868  0.61655396  0.54185919     0.10800
H255        H  0.30378860  0.58797492  0.65267703     0.16600
C256        C  0.17514127  0.62285363  0.39830861    -0.01600
C257        C  0.20007839  0.60085754  0.38490367     0.07000
C258        C  0.19498848  0.56570513  0.38565259    -0.07600
C259        C  0.16490072  0.55214850  0.39876124     0.04400
C260        C  0.13902366  0.57413772  0.41072765    -0.14800
C261        C  0.14477566  0.60935648  0.41112745    -0.08200
C262        C  0.23177951  0.61394472  0.36988269     0.05300
C263        C  0.25758690  0.62511570  0.39157339    -0.09300
C264        C  0.28791388  0.63802700  0.37825189     0.00300
C265        C  0.29246484  0.63995524  0.34261622     0.00200
C266        C  0.26691877  0.62776874  0.32097187    -0.12800
C267        C  0.23659860  0.61485596  0.33436429     0.00700
C268        C  0.31429720  0.64811889  0.40164920     0.40000
C269        C  0.21039749  0.60355848  0.31131563     0.36600
C270        C  0.17995627  0.65926325  0.39839018     0.36300
C271        C  0.16228820  0.51565670  0.40121190     0.37100
N272        N  0.33552151  0.65609057  0.42034863    -0.43700
N273        N  0.18933436  0.59451539  0.29292629    -0.44200
N274        N  0.16073389  0.48636073  0.40330689    -0.41500
N275        N  0.18396966  0.68842587  0.39844651    -0.43000
H276        H  0.12522589  0.62637716  0.42067999     0.13200
H277        H  0.21472506  0.54885770  0.37612577     0.09700
H278        H  0.25397288  0.62368090  0.41892888     0.10800
H279        H  0.27020639  0.62930483  0.29358491     0.16600
C280        C  0.19231638  0.40254852  0.42863174    -0.01600
C281        C  0.20242793  0.39998840  0.39430853     0.07000
C282        C  0.17794073  0.40293488  0.36852665    -0.07600
C283        C  0.14378773  0.40910685  0.37659194     0.04400
C284        C  0.13384623  0.41207246  0.41093651    -0.14800
C285        C  0.15816412  0.40818772  0.43671699    -0.08200
C286        C  0.23820519  0.39282848  0.38485159     0.05300
C287        C  0.25291954  0.36218247  0.39557871    -0.09300
C288        C  0.28574562  0.35302604  0.38530491     0.00300
C289        C  0.30437647  0.37472229  0.36311543     0.00200
C290        C  0.29003259  0.40632557  0.35398418    -0.12800
C291        C  0.25731070  0.41547541  0.36464925     0.00700
C292        C  0.29854228  0.32061116  0.39708200     0.40000
C293        C  0.24381850  0.44816692  0.35451248     0.36600
C294        C  0.21685915  0.40090825  0.45577480     0.36300
C295        C  0.11927093  0.41119895  0.34937983     0.37100
N296        N  0.30860989  0.29463731  0.40672142    -0.43700
N297        N  0.23297619  0.47435063  0.34642636    -0.44200
N298        N  0.09958571  0.41260293  0.32757430    -0.41500
N299        N  0.23699690  0.39971909  0.47712483    -0.43000
H300        H  0.15070707  0.41076579  0.46317343     0.13200
H301        H  0.18554139  0.40023092  0.34211262     0.09700
H302        H  0.23825100  0.34487816  0.41140218     0.10800
H303        H  0.30405092  0.42374234  0.33773512     0.16600
C304        C  0.86987192  0.63073781  0.57888685    -0.01600
C305        C  0.84352238  0.60904354  0.58970300     0.07000
C306        C  0.84908080  0.57394834  0.59122216    -0.07600
C307        C  0.88048218  0.56005763  0.58191330     0.04400
C308        C  0.90709643  0.58159957  0.57083665    -0.14800
C309        C  0.90134389  0.61690521  0.56937604    -0.08200
C310        C  0.81003269  0.62224444  0.60043445     0.05300
C311        C  0.78537935  0.62945259  0.57571627    -0.09300
C312        C  0.75246555  0.63941906  0.58529169     0.00300
C313        C  0.74440730  0.64330105  0.62010292     0.00200
C314        C  0.76926569  0.63597432  0.64469345    -0.12800
C315        C  0.80173145  0.62512562  0.63514883     0.00700
C316        C  0.72678194  0.64216879  0.55927155     0.40000
C317        C  0.82592901  0.61631568  0.66133773     0.36600
C318        C  0.86526575  0.66717144  0.57794597     0.36300
C319        C  0.88349028  0.52356783  0.58231419     0.37100
N320        N  0.70621485  0.64355277  0.53829444    -0.43700
N321        N  0.84528508  0.60895546  0.68224597    -0.44200
N322        N  0.88443770  0.49418896  0.58284040    -0.41500
N323        N  0.86152261  0.69637662  0.57736165    -0.43000
H324        H  0.92152900  0.63376184  0.56099904     0.13200
H325        H  0.82861085  0.55733691  0.59949015     0.09700
H326        H  0.79153377  0.62601045  0.54899883     0.10800
H327        H  0.76321991  0.63846172  0.67154809     0.16600
C328        C  0.85752749  0.39760385  0.60708389    -0.01600
C329        C  0.83209964  0.39821570  0.58187430     0.07000
C330        C  0.84027588  0.40878350  0.54880909    -0.07600
C331        C  0.87351043  0.41854987  0.54050933     0.04400
C332        C  0.89918889  0.41749045  0.56559075    -0.14800
C333        C  0.89082708  0.40739025  0.59883228    -0.08200
C334        C  0.79668442  0.38824071  0.58971292     0.05300
C335        C  0.77416261  0.41276421  0.60251455    -0.09300
C336        C  0.74095362  0.40386174  0.61198288     0.00300
C337        C  0.72987328  0.36985049  0.60838200     0.00200
C338        C  0.75223646  0.34565509  0.59438329    -0.12800
C339        C  0.78552412  0.35453256  0.58535387     0.00700
C340        C  0.71872902  0.43016706  0.62488546     0.40000
C341        C  0.80819532  0.32843681  0.57284460     0.36600
C342        C  0.84987271  0.38687042  0.64143502     0.36300
C343        C  0.88000609  0.43172479  0.50678580     0.37100
N344        N  0.70091515  0.45123359  0.63524725    -0.43700
N345        N  0.82641367  0.30747393  0.56300063    -0.44200
N346        N  0.88479689  0.44277562  0.47987582    -0.41500
N347        N  0.84352628  0.37820344  0.66890373    -0.43000
H348        H  0.91040043  0.40687384  0.61825963     0.13200
H349        H  0.82051218  0.40978469  0.52957950     0.09700
H350        H  0.78275601  0.43878582  0.60555402     0.10800
H351        H  0.74417850  0.31941966  0.59174160     0.16600
C352        C  0.78245862  0.38466336  0.38689569    -0.01600
C353        C  0.80667458  0.39823997  0.36420110     0.07000
C354        C  0.79939033  0.40024630  0.32940181    -0.07600
C355        C  0.76904591  0.38693481  0.31662975     0.04400
C356        C  0.74562103  0.37120478  0.33915597    -0.14800
C357        C  0.75225538  0.37122789  0.37425922    -0.08200
C358        C  0.84118386  0.40651589  0.37592045     0.05300
C359        C  0.86181423  0.37976125  0.38740278    -0.09300
C360        C  0.89428875  0.38605756  0.40003703     0.00300
C361        C  0.90653280  0.41973368  0.40095724     0.00200
C362        C  0.88626014  0.44637713  0.38835924    -0.12800
C363        C  0.85360366  0.44005308  0.37607409     0.00700
C364        C  0.91464889  0.35744531  0.41092375     0.40000
C365        C  0.83288215  0.46839148  0.36515560     0.36600
C366        C  0.78856664  0.38353187  0.42313837     0.36300
C367        C  0.76400824  0.38766098  0.28022953     0.37100
N368        N  0.93081203  0.33437854  0.41959411    -0.43700
N369        N  0.81635933  0.49123437  0.35658154    -0.44200
N370        N  0.76008071  0.38832243  0.25104720    -0.41500
N371        N  0.79362825  0.38271155  0.45213462    -0.43000
H372        H  0.73415384  0.35990401  0.39185825     0.13200
H373        H  0.81822747  0.41069146  0.31201798     0.09700
H374        H  0.85230533  0.35383079  0.38665532     0.10800
H375        H  0.89550327  0.47239681  0.38913507     0.16600
C376        C  0.86731629  0.58675297  0.36141576    -0.01600
C377        C  0.84919251  0.61194368  0.37935676     0.07000
C378        C  0.86201800  0.62373136  0.41038000    -0.07600
C379        C  0.89251022  0.61095255  0.42369451     0.04400
C380        C  0.91061551  0.58516763  0.40602841    -0.14800
C381        C  0.89753928  0.57359906  0.37480640    -0.08200
C382        C  0.81712268  0.62660516  0.36577848     0.05300
C383        C  0.78923453  0.60511114  0.35993562    -0.09300
C384        C  0.75924183  0.61763868  0.34533849     0.00300
C385        C  0.75682089  0.65241936  0.33654140     0.00200
C386        C  0.78435885  0.67397818  0.34337901    -0.12800
C387        C  0.81432560  0.66150801  0.35778380     0.00700
C388        C  0.73107253  0.59457964  0.34072491     0.40000
C389        C  0.84219548  0.68481499  0.36301260     0.36600
C390        C  0.85585071  0.57464477  0.32872242     0.36300
C391        C  0.90400926  0.62524552  0.45539012     0.37100
N392        N  0.70852077  0.57602579  0.33718290    -0.43700
N393        N  0.86440065  0.70363091  0.36725223    -0.44200
N394        N  0.91224217  0.63778295  0.48065851    -0.41500
N395        N  0.84650644  0.56503557  0.30255430    -0.43000
H396        H  0.91100453  0.55438981  0.36034805     0.13200
H397        H  0.84807803  0.64314594  0.42426056     0.09700
H398        H  0.79102624  0.57830634  0.36670138     0.10800
H399        H  0.78282174  0.70079594  0.33652765     0.16600
C400        C  0.64802072  0.23032577  0.58442201    -0.01600
C401        C  0.61307380  0.22264558  0.58646774     0.07000
C402        C  0.58990333  0.24783679  0.59643910    -0.07600
C403        C  0.60122550  0.28033406  0.60533674     0.04400
C404        C  0.63639019  0.28782399  0.60432866    -0.14800
C405        C  0.65932468  0.26281165  0.59300399    -0.08200
C406        C  0.60055340  0.18794403  0.57988531     0.05300
C407        C  0.58862671  0.16844449  0.60737120    -0.09300
C408        C  0.57898303  0.13454950  0.60271753     0.00300
C409        C  0.58154885  0.11984985  0.57012126     0.00200
C410        C  0.59280368  0.13969022  0.54250723    -0.12800
C411        C  0.60191280  0.17366365  0.54710493     0.00700
C412        C  0.56815534  0.11505201  0.63199624     0.40000
C413        C  0.61195712  0.19364874  0.51787070     0.36600
C414        C  0.67291552  0.20475231  0.57546606     0.36300
C415        C  0.57614980  0.30542269  0.61489809     0.37100
N416        N  0.55950173  0.09941320  0.65547101    -0.43700
N417        N  0.61978223  0.20997422  0.49458748    -0.44200
N418        N  0.55558473  0.32518807  0.62227231    -0.41500
N419        N  0.69284063  0.18423663  0.56835108    -0.43000
H420        H  0.68643653  0.26803294  0.59255162     0.13200
H421        H  0.56295414  0.24190263  0.59767067     0.09700
H422        H  0.58764067  0.17952206  0.63259152     0.10800
H423        H  0.59408962  0.12878807  0.51721405     0.16600
C424        C  0.38439185  0.24353900  0.57127150    -0.01600
C425        C  0.41378223  0.22823853  0.58469862     0.07000
C426        C  0.43535890  0.24700083  0.60577327    -0.07600
C427        C  0.42739750  0.28060286  0.61455471     0.04400
C428        C  0.39679454  0.29562128  0.60259210    -0.14800
C429        C  0.37608434  0.27684073  0.58029332    -0.08200
C430        C  0.42222091  0.19260014  0.57663428     0.05300
C431        C  0.43584370  0.18521612  0.54453917    -0.09300
C432        C  0.44146899  0.15157755  0.53465641     0.00300
C433        C  0.43308761  0.12477061  0.55712912     0.00200
C434        C  0.42060622  0.13222172  0.58973483    -0.12800
C435        C  0.41487682  0.16594751  0.59957040     0.00700
C436        C  0.45725947  0.14540821  0.50202388     0.40000
C437        C  0.40048561  0.17262719  0.63276255     0.36600
C438        C  0.36192559  0.22512620  0.54887549     0.36300
C439        C  0.45145099  0.29890360  0.63533034     0.37100
N440        N  0.47028909  0.14067922  0.47601020    -0.43700
N441        N  0.38887766  0.17798432  0.65933086    -0.44200
N442        N  0.47085351  0.31349887  0.65188830    -0.41500
N443        N  0.34408065  0.21026598  0.53088044    -0.43000
H444        H  0.35264535  0.28765767  0.57058421     0.13200
H445        H  0.45844339  0.23529402  0.61538525     0.09700
H446        H  0.44183486  0.20585128  0.52710174     0.10800
H447        H  0.41466590  0.11162918  0.60723518     0.16600
C448        C  0.46116892  0.17737124  0.37019108    -0.01600
C449        C  0.42931100  0.19135153  0.37894844     0.07000
C450        C  0.40539846  0.17119792  0.39614352    -0.07600
C451        C  0.41297751  0.13766975  0.40534939     0.04400
C452        C  0.44541058  0.12385809  0.39774313    -0.14800
C453        C  0.46907510  0.14401983  0.37986700    -0.08200
C454        C  0.41966545  0.22645577  0.36919495     0.05300
C455        C  0.41646257  0.23438140  0.33457914    -0.09300
C456        C  0.40481469  0.26633693  0.32414701     0.00300
C457        C  0.39640920  0.29123712  0.34875844     0.00200
C458        C  0.40001143  0.28333830  0.38345437    -0.12800
C459        C  0.41154379  0.25125237  0.39381778     0.00700
C460        C  0.39928807  0.27174851  0.28819607     0.40000
C461        C  0.41468144  0.24423683  0.42979359     0.36600
C462        C  0.48618960  0.19681433  0.35146840     0.36300
C463        C  0.38652642  0.11801873  0.42171035     0.37100
N464        N  0.39466690  0.27598719  0.25941256    -0.43700
N465        N  0.41712370  0.23850097  0.45859645    -0.44200
N466        N  0.36516458  0.10234195  0.43464990    -0.41500
N467        N  0.50604110  0.21230889  0.33611886    -0.43000
H468        H  0.49402781  0.13406212  0.37370003     0.13200
H469        H  0.38050071  0.18164403  0.40200184     0.09700
H470        H  0.42195830  0.21505592  0.31566555     0.10800
H471        H  0.39339993  0.30215188  0.40252454     0.16600
C472        C  0.64860543  0.16270036  0.42166387    -0.01600
C473        C  0.63687599  0.17768581  0.39126613     0.07000
C474        C  0.61342537  0.16009880  0.37116741    -0.07600
C475        C  0.60018863  0.12882022  0.38156817     0.04400
C476        C  0.61031150  0.11447373  0.41309493    -0.14800
C477        C  0.63504036  0.13154236  0.43248895    -0.08200
C478        C  0.64817331  0.21175752  0.37962361     0.05300
C479        C  0.68267419  0.21726107  0.37218521    -0.09300
C480        C  0.69349119  0.24809336  0.35795842     0.00300
C481        C  0.66935190  0.27357386  0.35017353     0.00200
C482        C  0.63501484  0.26835408  0.35823430    -0.12800
C483        C  0.62437661  0.23798546  0.37340018     0.00700
C484        C  0.72915604  0.25222030  0.34994808     0.40000
C485        C  0.58899303  0.23446411  0.38281563     0.36600
C486        C  0.67400003  0.17903486  0.44246413     0.36300
C487        C  0.57650013  0.11239972  0.35891723     0.37100
N488        N  0.75772568  0.25563759  0.34356670    -0.43700
N489        N  0.56071624  0.23161844  0.39061063    -0.44200
N490        N  0.55772674  0.09955262  0.34032094    -0.41500
N491        N  0.69451088  0.19200675  0.45903346    -0.43000
H492        H  0.64365497  0.12092302  0.45640386     0.13200
H493        H  0.60522811  0.17109305  0.34718773     0.09700
H494        H  0.70099629  0.19712278  0.37661322     0.10800
H495        H  0.61653467  0.28812238  0.35283939     0.16600
C496        C  0.36564901  0.77284214  0.57692146    -0.01600
C497        C  0.39865650  0.78601028  0.58111443     0.07000
C498        C  0.42395153  0.76579872  0.59592481    -0.07600
C499        C  0.41651131  0.73297488  0.60760644     0.04400
C500        C  0.38303371  0.72006174  0.60470320    -0.14800
C501        C  0.35809487  0.74000309  0.58854977    -0.08200
C502        C  0.40687695  0.82138264  0.57143294     0.05300
C503        C  0.40397403  0.84690203  0.59611430    -0.09300
C504        C  0.41133076  0.88078487  0.58800615     0.00300
C505        C  0.42087194  0.88948820  0.55447305     0.00200
C506        C  0.42357640  0.86391250  0.52972986    -0.12800
C507        C  0.41733004  0.82987226  0.53818190     0.00700
C508        C  0.40835495  0.90621626  0.61431319     0.40000
C509        C  0.42325422  0.80387757  0.51296418     0.36600
C510        C  0.33900192  0.79306522  0.56170124     0.36300
C511        C  0.44385844  0.71296399  0.62185444     0.37100
N512        N  0.40597764  0.92655473  0.63544043    -0.43700
N513        N  0.42845881  0.78289968  0.49299098    -0.44200
N514        N  0.46580625  0.69691651  0.63318891    -0.41500
N515        N  0.31775952  0.80943828  0.54952664    -0.43000
H516        H  0.33233345  0.73045901  0.58613546     0.13200
H517        H  0.44945014  0.77590440  0.59870612     0.09700
H518        H  0.39612180  0.84024773  0.62177535     0.10800
H519        H  0.43186351  0.87035050  0.50415636     0.16600
C520        C  0.56784772  0.82792295  0.59051176    -0.01600
C521        C  0.60293356  0.82072808  0.59348839     0.07000
C522        C  0.62671338  0.84668832  0.58772229    -0.07600
C523        C  0.61618124  0.87938902  0.57877369     0.04400
C524        C  0.58114571  0.88666181  0.57592464    -0.14800
C525        C  0.55723909  0.86091917  0.58229405    -0.08200
C526        C  0.61594498  0.78641403  0.60211411     0.05300
C527        C  0.63921865  0.77090502  0.57990411    -0.09300
C528        C  0.65523633  0.74025280  0.58845954     0.00300
C529        C  0.64702537  0.72374506  0.61953342     0.00200
C530        C  0.62265217  0.73905342  0.64107476    -0.12800
C531        C  0.60797299  0.77041318  0.63318643     0.00700
C532        C  0.68053301  0.72756725  0.56504330     0.40000
C533        C  0.58676114  0.78665950  0.65850751     0.36600
C534        C  0.54239422  0.80170555  0.59434104     0.36300
C535        C  0.64188477  0.90507425  0.57321280     0.37100
N536        N  0.70101187  0.71861756  0.54582229    -0.43700
N537        N  0.56989117  0.79968174  0.67887714    -0.44200
N538        N  0.66250334  0.92561131  0.56870314    -0.41500
N539        N  0.52199818  0.78071734  0.59754667    -0.43000
H540        H  0.53029358  0.86622399  0.57955120     0.13200
H541        H  0.65367680  0.84131172  0.59017366     0.09700
H542        H  0.64570420  0.78346962  0.55610788     0.10800
H543        H  0.61590925  0.72734979  0.66514248     0.16600
C544        C  0.62813803  0.78406800  0.34046730    -0.01600
C545        C  0.65049837  0.80792357  0.35501532     0.07000
C546        C  0.68554779  0.80172668  0.35433287    -0.07600
C547        C  0.69855984  0.77182195  0.34003315     0.04400
C548        C  0.67609704  0.74706274  0.32662884    -0.14800
C549        C  0.64101425  0.75400697  0.32632315    -0.08200
C550        C  0.63761268  0.83882387  0.37230464     0.05300
C551        C  0.63876799  0.84028060  0.40790764    -0.09300
C552        C  0.62455262  0.86778798  0.42555796     0.00300
C553        C  0.60887600  0.89463255  0.40726916     0.00200
C554        C  0.60861875  0.89339471  0.37150614    -0.12800
C555        C  0.62304373  0.86596426  0.35398580     0.00700
C556        C  0.62491045  0.86654484  0.46228780     0.40000
C557        C  0.62289692  0.86623402  0.31723669     0.36600
C558        C  0.59180011  0.78938802  0.34102048     0.36300
C559        C  0.73508718  0.76801407  0.33861765     0.37100
N560        N  0.62536889  0.86518238  0.49172106    -0.43700
N561        N  0.62291520  0.86641502  0.28778009    -0.44200
N562        N  0.76442557  0.76564146  0.33750020    -0.41500
N563        N  0.56270950  0.79391690  0.34152406    -0.43000
H564        H  0.62345778  0.73539189  0.31613977     0.13200
H565        H  0.70277247  0.82035452  0.36507790     0.09700
H566        H  0.65000816  0.81929982  0.42199615     0.10800
H567        H  0.59714503  0.91401160  0.35709546     0.16600
C568        C  0.40340085  0.84311522  0.40888832    -0.01600
C569        C  0.41162514  0.82964532  0.37666478     0.07000
C570        C  0.43088266  0.84912924  0.35372417    -0.07600
C571        C  0.44272167  0.88135550  0.36265898     0.04400
C572        C  0.43563868  0.89435493  0.39540486    -0.14800
C573        C  0.41556342  0.87516965  0.41802486    -0.08200
C574        C  0.39906181  0.79604602  0.36553711     0.05300
C575        C  0.36386084  0.79064962  0.36382312    -0.09300
C576        C  0.35083665  0.75998669  0.35169791     0.00300
C577        C  0.37336959  0.73428380  0.34052392     0.00200
C578        C  0.40857452  0.73968290  0.34222460    -0.12800
C579        C  0.42156705  0.77015245  0.35487480     0.00700
C580        C  0.31434144  0.75638743  0.34936248     0.40000
C581        C  0.45801727  0.77404661  0.35706868     0.36600
C582        C  0.38257154  0.82459728  0.43295616     0.36300
C583        C  0.46032364  0.90102067  0.33701626     0.37100
N584        N  0.28509090  0.75359301  0.34749763    -0.43700
N585        N  0.48724234  0.77706221  0.35879196    -0.44200
N586        N  0.47420757  0.91666796  0.31620457    -0.41500
N587        N  0.36548420  0.80992022  0.45201262    -0.43000
H588        H  0.40961936  0.88504456  0.44311445     0.13200
H589        H  0.43611969  0.83931679  0.32844237     0.09700
H590        H  0.34648792  0.81078964  0.37132664     0.10800
H591        H  0.42599062  0.71989588  0.33390929     0.16600
C592        C  0.57914596  0.38231356  0.15057710    -0.01600
C593        C  0.61355489  0.38648402  0.15954598     0.07000
C594        C  0.63644150  0.40038670  0.13594459    -0.07600
C595        C  0.62539005  0.41093036  0.10387864     0.04400
C596        C  0.59064891  0.40782192  0.09512398    -0.14800
C597        C  0.56790552  0.39307815  0.11855679    -0.08200
C598        C  0.62656661  0.37599273  0.19320294     0.05300
C599        C  0.62651873  0.34138531  0.20176926    -0.09300
C600        C  0.64046064  0.33012175  0.23248925     0.00300
C601        C  0.65490963  0.35392294  0.25523705     0.00200
C602        C  0.65449484  0.38865658  0.24663512    -0.12800
C603        C  0.64042186  0.39982200  0.21598800     0.00700
C604        C  0.64104099  0.29392627  0.23890290     0.40000
C605        C  0.64022919  0.43585364  0.20859386     0.36600
C606        C  0.55493355  0.36753172  0.17402856     0.36300
C607        C  0.65043688  0.42452669  0.08054247     0.37100
N608        N  0.64143430  0.26489301  0.24389379    -0.43700
N609        N  0.64008760  0.46472243  0.20271184    -0.44200
N610        N  0.67053812  0.43548902  0.06193039    -0.41500
N611        N  0.53582253  0.35533244  0.19290071    -0.43000
H612        H  0.54124704  0.39062105  0.11226598     0.13200
H613        H  0.66303711  0.40291346  0.14263496     0.09700
H614        H  0.61624289  0.32304601  0.18397687     0.10800
H615        H  0.66524049  0.40722290  0.26390124     0.16600
C616        C  0.67527309  0.62002794  0.19480633    -0.01600
C617        C  0.63978096  0.61905323  0.18997010     0.07000
C618        C  0.61816754  0.63228436  0.21518100    -0.07600
C619        C  0.63156727  0.64689774  0.24480630     0.04400
C620        C  0.66719054  0.64848447  0.24936471    -0.14800
C621        C  0.68865947  0.63449673  0.22438307    -0.08200
C622        C  0.62504159  0.60427708  0.15861486     0.05300
C623        C  0.62534766  0.56889361  0.15448453    -0.09300
C624        C  0.61358550  0.55398382  0.12439552     0.00300
C625        C  0.60184281  0.57476743  0.09739339     0.00200
C626        C  0.60064263  0.61019904  0.10210244    -0.12800
C627        C  0.61208851  0.62501242  0.13238057     0.00700
C628        C  0.61217813  0.51736900  0.12299069     0.40000
C629        C  0.61115365  0.66157164  0.13567562     0.36600
C630        C  0.69841290  0.60726079  0.16920005     0.36300
C631        C  0.60829368  0.65875755  0.27070882     0.37100
N632        N  0.61082555  0.48798556  0.12236879    -0.43700
N633        N  0.61040061  0.69087343  0.13838679    -0.44200
N634        N  0.58963846  0.66802417  0.29158488    -0.41500
N635        N  0.71682815  0.59708157  0.14854329    -0.43000
H636        H  0.71603605  0.63568463  0.22754745     0.13200
H637        H  0.59083104  0.63107390  0.21171312     0.09700
H638        H  0.63474456  0.55289573  0.17493944     0.10800
H639        H  0.59128742  0.62645613  0.08184892     0.16600
C640        C  0.45337206  0.61329667  0.14873510    -0.01600
C641        C  0.42086176  0.60470148  0.16109199     0.07000
C642        C  0.39906083  0.58502715  0.14108272    -0.07600
C643        C  0.40890308  0.57440050  0.10860694     0.04400
C644        C  0.44124264  0.58377905  0.09562342    -0.14800
C645        C  0.46326366  0.60287091  0.11626241    -0.08200
C646        C  0.40797849  0.61826198  0.19362190     0.05300
C647        C  0.40303104  0.65344008  0.19635630    -0.09300
C648        C  0.38895686  0.66749442  0.22577068     0.00300
C649        C  0.37950599  0.64600785  0.25307936     0.00200
C650        C  0.38451388  0.61074598  0.25030969    -0.12800
C651        C  0.39883330  0.59675868  0.22087802     0.00700
C652        C  0.38284068  0.70374287  0.22639891     0.40000
C653        C  0.40447990  0.56047574  0.21937390     0.36600
C654        C  0.47713012  0.63246047  0.16907716     0.36300
C655        C  0.38478276  0.55473248  0.08922744     0.37100
N656        N  0.37788309  0.73277226  0.22680956    -0.43700
N657        N  0.40913922  0.53142350  0.21816044    -0.44200
N658        N  0.36522461  0.53897391  0.07397445    -0.41500
N659        N  0.49622106  0.64775222  0.18535585    -0.43000
H660        H  0.48844800  0.60966974  0.10731945     0.13200
H661        H  0.37390742  0.57864929  0.15061989     0.09700
H662        H  0.40952720  0.66987033  0.17507533     0.10800
H663        H  0.37752192  0.59415544  0.27129279     0.16600
C664        C  0.42459737  0.39928974  0.22379359    -0.01600
C665        C  0.39920157  0.40334123  0.19876940     0.07000
C666        C  0.36503051  0.39782011  0.20756762    -0.07600
C667        C  0.35596708  0.38788449  0.24056157     0.04400
C668        C  0.38155075  0.38242473  0.26517893    -0.14800
C669        C  0.41567467  0.38833997  0.25652520    -0.08200
C670        C  0.40794791  0.41180405  0.16296787     0.05300
C671        C  0.42953822  0.38987644  0.14486202    -0.09300
C672        C  0.43890614  0.39690268  0.11118381     0.00300
C673        C  0.42662911  0.42670479  0.09493169     0.00200
C674        C  0.40414580  0.44802741  0.11296207    -0.12800
C675        C  0.39469702  0.44081158  0.14654064     0.00700
C676        C  0.46074399  0.37266073  0.09423630     0.40000
C677        C  0.37191855  0.46400133  0.16375351     0.36600
C678        C  0.45980650  0.40707549  0.21669704     0.36300
C679        C  0.32044546  0.38171323  0.24786536     0.37100
N680        N  0.47809504  0.35284505  0.08101504    -0.43700
N681        N  0.35343440  0.48247962  0.17737049    -0.44200
N682        N  0.29199168  0.37685318  0.25380312    -0.41500
N683        N  0.48794080  0.41370807  0.21103198    -0.43000
H684        H  0.43537365  0.38449042  0.27543803     0.13200
H685        H  0.34543545  0.40058739  0.18837112     0.09700
H686        H  0.43906214  0.36702969  0.15716217     0.10800
H687        H  0.39410659  0.47083823  0.10120448     0.16600
C688        C  0.58831865  0.58194669  0.80684716    -0.01600
C689        C  0.62283771  0.58729871  0.79886525     0.07000
C690        C  0.64781553  0.58236386  0.82375933    -0.07600
C691        C  0.63865260  0.57279804  0.85680035     0.04400
C692        C  0.60404594  0.56833991  0.86506617    -0.14800
C693        C  0.57909075  0.57271733  0.83997952    -0.08200
C694        C  0.63302846  0.60212524  0.76600648     0.05300
C695        C  0.63009732  0.63736360  0.76206759    -0.09300
C696        C  0.64068638  0.65324284  0.73208425     0.00300
C697        C  0.65450578  0.63348657  0.70534182     0.00200
C698        C  0.65723438  0.59804098  0.70937473    -0.12800
C699        C  0.64640168  0.58222875  0.73944539     0.00700
C700        C  0.63879444  0.68991664  0.73056652     0.40000
C701        C  0.64883225  0.54569148  0.74242054     0.36600
C702        C  0.56216000  0.58601172  0.78141774     0.36300
C703        C  0.66486012  0.56989128  0.88233563     0.37100
N704        N  0.63722033  0.71931650  0.72993971    -0.43700
N705        N  0.65059933  0.51638177  0.74471994    -0.44200
N706        N  0.68566284  0.56774303  0.90301632    -0.41500
N707        N  0.54140047  0.58914063  0.76081598    -0.43000
H708        H  0.55248569  0.56882229  0.84625904     0.13200
H709        H  0.67430442  0.58711393  0.81761869     0.09700
H710        H  0.62004407  0.65254267  0.78281936     0.10800
H711        H  0.66768907  0.58269765  0.68896726     0.16600
C712        C  0.65947789  0.36690455  0.75950996    -0.01600
C713        C  0.62687994  0.37987310  0.76744529     0.07000
C714        C  0.60374414  0.38627496  0.74097406    -0.07600
C715        C  0.61231471  0.37921777  0.70714157     0.04400
C716        C  0.64490989  0.36650739  0.69934754    -0.14800
C717        C  0.66830667  0.36073360  0.72560041    -0.08200
C718        C  0.61667548  0.38787065  0.80295778     0.05300
C719        C  0.63652861  0.41054742  0.82189516    -0.09300
C720        C  0.62697636  0.42016068  0.85481869     0.00300
C721        C  0.59614266  0.40787512  0.86902664     0.00200
C722        C  0.57691075  0.38430336  0.85031416    -0.12800
C723        C  0.58694404  0.37414539  0.81772505     0.00700
C724        C  0.64966487  0.44239494  0.87312341     0.40000
C725        C  0.56633532  0.34946825  0.80005612     0.36600
C726        C  0.68388557  0.35863788  0.78568052     0.36300
C727        C  0.58769404  0.38625807  0.68087238     0.37100
N728        N  0.66825898  0.45997323  0.88757531    -0.43700
N729        N  0.54975352  0.32977073  0.78589552    -0.44200
N730        N  0.56783831  0.39218880  0.65999145    -0.41500
N731        N  0.70348913  0.35202911  0.80660953    -0.43000
H732        H  0.69326513  0.35044070  0.71964016     0.13200
H733        H  0.57892179  0.39693714  0.74678261     0.09700
H734        H  0.65947842  0.42116002  0.81070122     0.10800
H735        H  0.55358266  0.37393318  0.86075493     0.16600
C736        C  0.41774200  0.38632638  0.82019049    -0.01600
C737        C  0.42083179  0.40957112  0.79298191     0.07000
C738        C  0.43218066  0.44272395  0.79917663    -0.07600
C739        C  0.44010274  0.45311988  0.83220093     0.04400
C740        C  0.43704565  0.42982734  0.85948471    -0.14800
C741        C  0.42635812  0.39646538  0.85313756    -0.07900
C742        C  0.41121733  0.40013084  0.75800730     0.05300
C743        C  0.37665291  0.39617436  0.75050070    -0.09300
C744        C  0.36629505  0.38685629  0.71788335     0.00300
C745        C  0.39087629  0.38191011  0.69203325     0.00200
C746        C  0.42552657  0.38565456  0.69964618    -0.12800
C747        C  0.43585725  0.39476780  0.73242722     0.00700
C748        C  0.33057636  0.38025676  0.71231622     0.40000
C749        C  0.47178339  0.39736174  0.73959010     0.36600
C750        C  0.40563153  0.35209487  0.81484091     0.36300
C751        C  0.45238817  0.48736831  0.83710764     0.37100
N752        N  0.30202051  0.37463600  0.70793852    -0.43700
N753        N  0.50057277  0.39928699  0.74539037    -0.44200
N754        N  0.46233092  0.51480818  0.84079065    -0.41500
N755        N  0.39572419  0.32473849  0.81050592    -0.43000
H756        H  0.42404218  0.37854927  0.87407419     0.13200
H757        H  0.43453510  0.46055770  0.77816847     0.09700
H758        H  0.35779709  0.39983880  0.77038879     0.10800
H759        H  0.44449003  0.38126620  0.68002197     0.16600
C760        C  0.40309669  0.65916529  0.75747981    -0.01600
C761        C  0.40967593  0.62532905  0.76736870     0.07000
C762        C  0.40552383  0.59900587  0.74372582    -0.07600
C763        C  0.39495526  0.60593956  0.71044409     0.04400
C764        C  0.38855208  0.63986384  0.70036123    -0.14800
C765        C  0.39301153  0.66621270  0.72406576    -0.08200
C766        C  0.42048375  0.61646224  0.80233870     0.05300
C767        C  0.39808866  0.59804049  0.82313264    -0.09300
C768        C  0.40799523  0.58693446  0.85547515     0.00300
C769        C  0.44136934  0.59360478  0.86720129     0.00200
C770        C  0.46334171  0.61307717  0.84661286    -0.12800
C771        C  0.45314597  0.62461154  0.81450297     0.00700
C772        C  0.38312172  0.56923403  0.87603275     0.40000
C773        C  0.47694349  0.64388820  0.79408226     0.36600
C774        C  0.40528094  0.68681861  0.78149705     0.36300
C775        C  0.39181031  0.57788560  0.68700298     0.37100
N776        N  0.36302057  0.55523167  0.89247006    -0.43700
N777        N  0.49591348  0.65955292  0.77780991    -0.44200
N778        N  0.38929304  0.55539102  0.66823115    -0.41500
N779        N  0.40691786  0.70894539  0.80079707    -0.43000
H780        H  0.38761882  0.69227862  0.71677981     0.13200
H781        H  0.41065416  0.57297383  0.75133655     0.09700
H782        H  0.37273033  0.59220188  0.81391105     0.10800
H783        H  0.48899720  0.61861561  0.85504942     0.16600
loop_ 
_geom_bond_atom_site_label_1 
_geom_bond_atom_site_label_2 
_geom_bond_distance 
_geom_bond_site_symmetry_2 
_ccdc_geom_bond_type 
C1           N19   1.350       .  A
C1           C38   1.462       .  S
C1          C769   1.485       .  S
N2           N19   1.323       .  A
N2           N24   1.317       .  A
N2          Co39   2.083       .  S
C3           N28   1.341       .  A
C3           C41   1.463       .  S
C3           H48   1.080       .  S
H4           C45   1.080       .  S
C5           N29   1.338       .  A
C5            C9   1.463       .  S
C5           H34   1.081       .  S
Co6          N24   2.076       .  S
Co6          N14   2.077       .  S
Co6          N46   2.073   1_556  S
Co6          N22   2.085   1_556  S
Co6         Cl50   2.450       .  S
N7           C45   1.337       .  A
N7           N14   1.320       .  A
N7           Co8   2.073       .  S
Co8          N11   2.083       .  S
Co8          N28   2.083   1_556  S
Co8          N15   2.072   1_556  S
Co8         Cl50   2.449       .  S
C9           N47   1.350       .  A
C9          C721   1.486       .  S
N10          N17   1.321       .  A
N10          N40   1.324       .  A
N10         Co43   2.088       .  S
N11          N29   1.318       .  A
N11          N47   1.323       .  A
N12          C41   1.350       .  A
N12          N22   1.324       .  A
H13          C38   1.081       .  S
N14          N35   1.323       .  A
N15          N33   1.319       .  A
N15          N20   1.320       .  A
C16          N20   1.347       .  A
C16          C44   1.460       .  S
C16         C596   1.476       .  S
N17          C32   1.338       .  A
N17         Co39   2.074       .  S
C18          N46   1.337       .  A
C18          C21   1.461       .  S
C18          H52   1.081       .  S
C21          N42   1.348       .  A
C21         C644   1.479       .  S
N22          N28   1.318       .  A
N23          C49   1.338       .  A
N23          N25   1.317       .  A
N23         Co39   2.080   1_554  S
N24          C38   1.340       .  A
N25          N53   1.323       .  A
N25         Co43   2.077   1_554  S
H26          C49   1.080       .  S
H27          C44   1.081       .  S
N29         Co43   2.077       .  S
N30          N42   1.322       .  A
N30          N46   1.318       .  A
N30         Co39   2.077   1_554  S
C31          N35   1.347       .  A
C31          C45   1.452       .  S
C31         C692   1.464       .  S
C32          C51   1.454       .  S
C32          H36   1.081       .  S
N33          C44   1.340       .  A
N33         Co43   2.082   1_554  S
C37          N53   1.350       .  A
C37          C49   1.463       .  S
C37         C673   1.487       .  S
Co39        Cl50   2.448       .  S
N40          C51   1.349       .  A
C41         C625   1.484       .  S
Co43        Cl50   2.452       .  S
C51         C740   1.468       .  S
C54          N72   1.348       .  A
C54          C91   1.458       .  S
C54         C505   1.471       .  S
N55          N72   1.323       .  A
N55          N77   1.320       .  A
N55         Co92   2.078   1_565  S
C56          N81   1.339       .  A
C56          C94   1.461       .  S
C56         H101   1.078       .  S
H57          C98   1.081       .  S
C58          N82   1.339       .  A
C58          C62   1.461       .  S
C58          H87   1.081       .  S
Co59         N77   2.086   1_545  S
Co59         N67   2.076   1_545  S
Co59         N99   2.085       .  S
Co59         N75   2.080       .  S
Co59       Cl103   2.445       .  S
N60          C98   1.338       .  A
N60          N67   1.319       .  A
N60         Co61   2.075   1_565  S
Co61         N64   2.086   1_545  S
Co61         N81   2.079       .  S
Co61         N68   2.078       .  S
Co61       Cl103   2.450       .  S
C62         N100   1.352       .  A
C62         C553   1.482       .  S
N63          N70   1.320       .  A
N63          N93   1.320       .  A
N63         Co96   2.073   1_565  S
N64          N82   1.318       .  A
N64         N100   1.324       .  A
N65          C94   1.350       .  A
N65          N75   1.322       .  A
H66          C91   1.081       .  S
N67          N88   1.321       .  A
N68          N86   1.317       .  A
N68          N73   1.321       .  A
C69          N73   1.349       .  A
C69          C97   1.464       .  S
C69         C476   1.486       .  S
N70          C85   1.341       .  A
N70         Co92   2.079   1_565  S
C71          N99   1.340       .  A
C71          C74   1.458       .  S
C71         H105   1.081       .  S
C74          N95   1.345       .  A
C74         C433   1.468       .  S
N75          N81   1.318       .  A
N76         C102   1.341       .  A
N76          N78   1.319       .  A
N76         Co92   2.081       .  S
N77          C91   1.341       .  A
N78         N106   1.320       .  A
N78         Co96   2.069       .  S
H79         C102   1.080       .  S
H80          C97   1.081       .  S
N82         Co96   2.077   1_565  S
N83          N95   1.323       .  A
N83          N99   1.319       .  A
N83         Co92   2.075       .  S
C84          N88   1.348       .  A
C84          C98   1.460       .  S
C84         C572   1.474       .  S
C85         C104   1.458       .  S
C85          H89   1.081       .  S
N86          C97   1.341       .  A
N86         Co96   2.079       .  S
C90         N106   1.346       .  A
C90         C102   1.458       .  S
C90         C409   1.469       .  S
Co92       Cl103   2.457       .  S
N93         C104   1.346       .  A
C94         C452   1.483       .  S
Co96       Cl103   2.447       .  S
C104        C524   1.470       .  S
C107        N125   1.353       .  A
C107        C144   1.453       .  S
C107        C308   1.479       .  S
N108        N125   1.327       .  A
N108        N130   1.320       .  A
N108       Co145   2.093   1_655  S
C109        N134   1.336       .  A
C109        C147   1.454       .  S
C109        H154   1.081       .  S
H110        C151   1.081       .  S
C111        N135   1.337       .  A
C111        C115   1.459       .  S
C111        H140   1.081       .  S
Co112       N130   2.074   1_455  S
Co112       N120   2.089   1_455  S
Co112       N152   2.072       .  S
Co112       N128   2.085       .  S
Co112      Cl156   2.455       .  S
N113        C151   1.338       .  A
N113        N120   1.319       .  A
N113       Co114   2.086   1_655  S
Co114       N117   2.064   1_455  S
Co114       N134   2.066       .  S
Co114       N121   2.086       .  S
Co114      Cl156   2.448       .  S
C115        N153   1.345       .  A
C115        C361   1.466       .  S
N116        N123   1.320       .  A
N116        N146   1.323       .  A
N116       Co149   2.078   1_655  S
N117        N135   1.318       .  A
N117        N153   1.320       .  A
N118        C147   1.349       .  A
N118        N128   1.324       .  A
H119        C144   1.080       .  S
N120        N141   1.326       .  A
N121        N139   1.319       .  A
N121        N126   1.324       .  A
C122        N126   1.350       .  A
C122        C150   1.453       .  S
C122        C284   1.468       .  S
N123        C138   1.341       .  A
N123       Co145   2.088   1_655  S
C124        N152   1.337       .  A
C124        C127   1.454       .  S
C124        H158   1.081       .  S
C127        N148   1.351       .  A
C127        C236   1.476       .  S
N128        N134   1.318       .  A
N129        C155   1.339       .  A
N129        N131   1.319       .  A
N129       Co145   2.077       .  S
N130        C144   1.334       .  A
N131        N159   1.323       .  A
N131       Co149   2.079       .  S
H132        C155   1.081       .  S
H133        C150   1.081       .  S
N135       Co149   2.075   1_655  S
N136        N148   1.327       .  A
N136        N152   1.320       .  A
N136       Co145   2.097       .  S
C137        N141   1.352       .  A
C137        C151   1.463       .  S
C137        C380   1.491       .  S
C138        C157   1.460       .  S
C138        H142   1.080       .  S
N139        C150   1.337       .  A
N139       Co149   2.070       .  S
C143        N159   1.346       .  A
C143        C155   1.455       .  S
C143        C212   1.463       .  S
Co145      Cl156   2.454       .  S
N146        C157   1.347       .  A
C147        C260   1.471       .  S
Co149      Cl156   2.447       .  S
C157        C332   1.474       .  S
C160        N161   1.355       .  A
C160        N165   1.356       .  A
C160        C356   1.475       .  S
N161        C162   1.357       .  A
C162        N163   1.357       .  A
C162        C601   1.479       .  S
N163        C164   1.356       .  A
C164        N165   1.353       .  A
C164        C481   1.470       .  S
C166        N167   1.358       .  A
C166        N171   1.355       .  A
C166        C385   1.478       .  S
N167        C168   1.360       .  A
C168        N169   1.361       .  A
C168        C620   1.481       .  S
N169        C170   1.361       .  A
C170        N171   1.356       .  A
C170        C548   1.484       .  S
C172        N173   1.356       .  A
C172        N177   1.356       .  A
C172        C716   1.468       .  S
N173        C174   1.356       .  A
C174        N175   1.357       .  A
C174        C337   1.479       .  S
N175        C176   1.359       .  A
C176        N177   1.357       .  A
C176        C404   1.476       .  S
C178        N179   1.355       .  A
C178        N183   1.353       .  A
C178        C577   1.469       .  S
N179        C180   1.356       .  A
C180        N181   1.357       .  A
C180        C649   1.471       .  S
N181        C182   1.357       .  A
C182        N183   1.354       .  A
C182        C265   1.469       .  S
C184        N185   1.356       .  A
C184        N189   1.359       .  A
C184        C500   1.481       .  S
N185        C186   1.355       .  A
C186        N187   1.356       .  A
C186        C764   1.478       .  S
N187        C188   1.359       .  A
C188        N189   1.361       .  A
C188        C241   1.494       .  S
C190        N191   1.355       .  A
C190        N195   1.354       .  A
C190        C745   1.470       .  S
N191        C192   1.357       .  A
C192        N193   1.357       .  A
C192        C217   1.488       .  S
N193        C194   1.359       .  A
C194        N195   1.356       .  A
C194        C428   1.487       .  S
C196        N197   1.352       .  A
C196        N201   1.352       .  A
C196        C697   1.473       .  S
N197        C198   1.356       .  A
C198        N199   1.362       .  A
C198        C313   1.475       .  S
N199        C200   1.362       .  A
C200        N201   1.358       .  A
C200        C529   1.491       .  S
C202        N203   1.357       .  A
C202        N207   1.356       .  A
C202        C457   1.478       .  S
N203        C204   1.357       .  A
C204        N205   1.358       .  A
C204        C289   1.488       .  S
N205        C206   1.356       .  A
C206        N207   1.355       .  A
C206        C668   1.473       .  S
C208        C209   1.410       .  A
C208        C213   1.397       .  A
C208        C222   1.444       .  S
C209        C214   1.476       .  S
C209        C210   1.401       .  A
C210        H229   1.084       .  S
C210        C211   1.399       .  A
C211        C212   1.411       .  A
C211        C223   1.445       .  S
C212        C213   1.398       .  A
C213        H228   1.085       .  S
C214        C215   1.399       .  A
C214        C219   1.406       .  A
C215        H230   1.082       .  S
C215        C216   1.400       .  A
C216        C217   1.418       .  A
C216        C220   1.445       .  S
C217        C218   1.409       .  A
C218        H231   1.084       .  S
C218        C219   1.396       .  A
C219        C221   1.445       .  S
C220        N224   1.158       .  T
C221        N225   1.157       .  T
C222        N227   1.157       .  T
C223        N226   1.158       .  T
C232        C233   1.412       .  A
C232        C237   1.404       .  A
C232        C246   1.443       .  S
C233        C238   1.487       .  S
C233        C234   1.403       .  A
C234        H253   1.084       .  S
C234        C235   1.396       .  A
C235        C236   1.410       .  A
C235        C247   1.444       .  S
C236        C237   1.406       .  A
C237        H252   1.083       .  S
C238        C239   1.403       .  A
C238        C243   1.409       .  A
C239        H254   1.085       .  S
C239        C240   1.401       .  A
C240        C241   1.419       .  A
C240        C244   1.444       .  S
C241        C242   1.410       .  A
C242        H255   1.084       .  S
C242        C243   1.399       .  A
C243        C245   1.444       .  S
C244        N248   1.158       .  T
C245        N249   1.157       .  T
C246        N251   1.157       .  T
C247        N250   1.157       .  T
C256        C257   1.408       .  A
C256        C261   1.398       .  A
C256        C270   1.444       .  S
C257        C262   1.470       .  S
C257        C258   1.396       .  A
C258        H277   1.085       .  S
C258        C259   1.394       .  A
C259        C260   1.414       .  A
C259        C271   1.441       .  S
C260        C261   1.403       .  A
C261        H276   1.085       .  S
C262        C263   1.399       .  A
C262        C267   1.408       .  A
C263        H278   1.085       .  S
C263        C264   1.396       .  A
C264        C265   1.413       .  A
C264        C268   1.444       .  S
C265        C266   1.403       .  A
C266        H279   1.085       .  S
C266        C267   1.396       .  A
C267        C269   1.444       .  S
C268        N272   1.157       .  T
C269        N273   1.157       .  T
C270        N275   1.157       .  T
C271        N274   1.156       .  T
C280        C281   1.408       .  A
C280        C285   1.396       .  A
C280        C294   1.441       .  S
C281        C286   1.480       .  S
C281        C282   1.404       .  A
C282        H301   1.084       .  S
C282        C283   1.399       .  A
C283        C284   1.408       .  A
C283        C295   1.444       .  S
C284        C285   1.403       .  A
C285        H300   1.084       .  S
C286        C287   1.400       .  A
C286        C291   1.407       .  A
C287        H302   1.085       .  S
C287        C288   1.397       .  A
C288        C289   1.420       .  A
C288        C292   1.445       .  S
C289        C290   1.409       .  A
C290        H303   1.084       .  S
C290        C291   1.398       .  A
C291        C293   1.445       .  S
C292        N296   1.158       .  T
C293        N297   1.157       .  T
C294        N299   1.156       .  T
C295        N298   1.157       .  T
C304        C305   1.406       .  A
C304        C309   1.400       .  A
C304        C318   1.444       .  S
C305        C310   1.475       .  S
C305        C306   1.397       .  A
C306        H325   1.085       .  S
C306        C307   1.397       .  A
C307        C308   1.413       .  A
C307        C319   1.439       .  S
C308        C309   1.407       .  A
C309        H324   1.084       .  S
C310        C311   1.402       .  A
C310        C315   1.406       .  A
C311        H326   1.085       .  S
C311        C312   1.401       .  A
C312        C313   1.411       .  A
C312        C316   1.443       .  S
C313        C314   1.405       .  A
C314        H327   1.085       .  S
C314        C315   1.395       .  A
C315        C317   1.444       .  S
C316        N320   1.157       .  T
C317        N321   1.157       .  T
C318        N323   1.157       .  T
C319        N322   1.155       .  T
C328        C329   1.409       .  A
C328        C333   1.401       .  A
C328        C342   1.444       .  S
C329        C334   1.477       .  S
C329        C330   1.399       .  A
C330        H349   1.086       .  S
C330        C331   1.399       .  A
C331        C332   1.413       .  A
C331        C343   1.443       .  S
C332        C333   1.402       .  A
C333        H348   1.085       .  S
C334        C335   1.401       .  A
C334        C339   1.407       .  A
C335        H350   1.084       .  S
C335        C336   1.400       .  A
C336        C337   1.414       .  A
C336        C340   1.444       .  S
C337        C338   1.406       .  A
C338        H351   1.084       .  S
C338        C339   1.399       .  A
C339        C341   1.444       .  S
C340        N344   1.157       .  T
C341        N345   1.157       .  T
C342        N347   1.157       .  T
C343        N346   1.157       .  T
C352        C353   1.406       .  A
C352        C357   1.393       .  A
C352        C366   1.445       .  S
C353        C358   1.471       .  S
C353        C354   1.400       .  A
C354        H373   1.086       .  S
C354        C355   1.398       .  A
C355        C356   1.416       .  A
C355        C367   1.444       .  S
C356        C357   1.404       .  A
C357        H372   1.085       .  S
C358        C359   1.401       .  A
C358        C363   1.406       .  A
C359        H374   1.086       .  S
C359        C360   1.393       .  A
C360        C361   1.410       .  A
C360        C364   1.444       .  S
C361        C362   1.405       .  A
C362        H375   1.086       .  S
C362        C363   1.395       .  A
C363        C365   1.444       .  S
C364        N368   1.157       .  T
C365        N369   1.157       .  T
C366        N371   1.157       .  T
C367        N370   1.157       .  T
C376        C377   1.408       .  A
C376        C381   1.398       .  A
C376        C390   1.444       .  S
C377        C382   1.485       .  S
C377        C378   1.401       .  A
C378        H397   1.086       .  S
C378        C379   1.401       .  A
C379        C380   1.419       .  A
C379        C391   1.442       .  S
C380        C381   1.408       .  A
C381        H396   1.082       .  S
C382        C383   1.404       .  A
C382        C387   1.411       .  A
C383        H398   1.088       .  S
C383        C384   1.401       .  A
C384        C385   1.412       .  A
C384        C388   1.444       .  S
C385        C386   1.402       .  A
C386        H399   1.089       .  S
C386        C387   1.396       .  A
C387        C389   1.444       .  S
C388        N392   1.157       .  T
C389        N393   1.157       .  T
C390        N395   1.157       .  T
C391        N394   1.157       .  T
C400        C401   1.408       .  A
C400        C405   1.395       .  A
C400        C414   1.445       .  S
C401        C406   1.474       .  S
C401        C402   1.400       .  A
C402        H421   1.086       .  S
C402        C403   1.399       .  A
C403        C404   1.414       .  A
C403        C415   1.443       .  S
C404        C405   1.405       .  A
C405        H420   1.085       .  S
C406        C407   1.402       .  A
C406        C411   1.407       .  A
C407        H422   1.084       .  S
C407        C408   1.398       .  A
C408        C409   1.409       .  A
C408        C412   1.444       .  S
C409        C410   1.405       .  A
C410        H423   1.084       .  S
C410        C411   1.395       .  A
C411        C413   1.444       .  S
C412        N416   1.157       .  T
C413        N417   1.157       .  T
C414        N419   1.157       .  T
C415        N418   1.157       .  T
C424        C425   1.405       .  A
C424        C429   1.395       .  A
C424        C438   1.445       .  S
C425        C430   1.474       .  S
C425        C426   1.399       .  A
C426        H445   1.085       .  S
C426        C427   1.401       .  A
C427        C428   1.420       .  A
C427        C439   1.445       .  S
C428        C429   1.409       .  A
C429        H444   1.084       .  S
C430        C431   1.399       .  A
C430        C435   1.409       .  A
C431        H446   1.086       .  S
C431        C432   1.396       .  A
C432        C433   1.411       .  A
C432        C436   1.443       .  S
C433        C434   1.402       .  A
C434        H447   1.086       .  S
C434        C435   1.399       .  A
C435        C437   1.444       .  S
C436        N440   1.157       .  T
C437        N441   1.157       .  T
C438        N443   1.157       .  T
C439        N442   1.158       .  T
C448        C449   1.408       .  A
C448        C453   1.399       .  A
C448        C462   1.444       .  S
C449        C454   1.480       .  S
C449        C450   1.401       .  A
C450        H469   1.085       .  S
C450        C451   1.398       .  A
C451        C452   1.416       .  A
C451        C463   1.444       .  S
C452        C453   1.407       .  A
C453        H468   1.082       .  S
C454        C455   1.400       .  A
C454        C459   1.410       .  A
C455        H470   1.085       .  S
C455        C456   1.397       .  A
C456        C457   1.415       .  A
C456        C460   1.445       .  S
C457        C458   1.405       .  A
C458        H471   1.085       .  S
C458        C459   1.399       .  A
C459        C461   1.445       .  S
C460        N464   1.157       .  T
C461        N465   1.157       .  T
C462        N467   1.157       .  T
C463        N466   1.157       .  T
C472        C473   1.409       .  A
C472        C477   1.401       .  A
C472        C486   1.444       .  S
C473        C478   1.482       .  S
C473        C474   1.400       .  A
C474        H493   1.085       .  S
C474        C475   1.395       .  A
C475        C476   1.417       .  A
C475        C487   1.444       .  S
C476        C477   1.409       .  A
C477        H492   1.082       .  S
C478        C479   1.403       .  A
C478        C483   1.412       .  A
C479        H494   1.083       .  S
C479        C480   1.399       .  A
C480        C481   1.412       .  A
C480        C484   1.445       .  S
C481        C482   1.400       .  A
C482        H495   1.084       .  S
C482        C483   1.397       .  A
C483        C485   1.444       .  S
C484        N488   1.157       .  T
C485        N489   1.157       .  T
C486        N491   1.157       .  T
C487        N490   1.157       .  T
C496        C497   1.407       .  A
C496        C501   1.400       .  A
C496        C510   1.444       .  S
C497        C502   1.476       .  S
C497        C498   1.399       .  A
C498        H517   1.084       .  S
C498        C499   1.399       .  A
C499        C500   1.416       .  A
C499        C511   1.444       .  S
C500        C501   1.406       .  A
C501        H516   1.085       .  S
C502        C503   1.401       .  A
C502        C507   1.407       .  A
C503        H518   1.085       .  S
C503        C504   1.399       .  A
C504        C505   1.410       .  A
C504        C508   1.444       .  S
C505        C506   1.404       .  A
C506        H519   1.084       .  S
C506        C507   1.399       .  A
C507        C509   1.443       .  S
C508        N512   1.157       .  T
C509        N513   1.157       .  T
C510        N515   1.157       .  T
C511        N514   1.157       .  T
C520        C521   1.412       .  A
C520        C525   1.399       .  A
C520        C534   1.444       .  S
C521        C526   1.481       .  S
C521        C522   1.402       .  A
C522        H541   1.085       .  S
C522        C523   1.394       .  A
C523        C524   1.410       .  A
C523        C535   1.445       .  S
C524        C525   1.403       .  A
C525        H540   1.085       .  S
C526        C527   1.402       .  A
C526        C531   1.406       .  A
C527        H542   1.086       .  S
C527        C528   1.399       .  A
C528        C529   1.417       .  A
C528        C532   1.441       .  S
C529        C530   1.411       .  A
C530        H543   1.083       .  S
C530        C531   1.395       .  A
C531        C533   1.445       .  S
C532        N536   1.157       .  T
C533        N537   1.157       .  T
C534        N539   1.157       .  T
C535        N538   1.157       .  T
C544        C545   1.409       .  A
C544        C549   1.400       .  A
C544        C558   1.443       .  S
C545        C550   1.481       .  S
C545        C546   1.398       .  A
C546        H565   1.085       .  S
C546        C547   1.399       .  A
C547        C548   1.418       .  A
C547        C559   1.444       .  S
C548        C549   1.405       .  A
C549        H564   1.084       .  S
C550        C551   1.401       .  A
C550        C555   1.407       .  A
C551        H566   1.086       .  S
C551        C552   1.400       .  A
C552        C553   1.416       .  A
C552        C556   1.444       .  S
C553        C554   1.406       .  A
C554        H567   1.086       .  S
C554        C555   1.399       .  A
C555        C557   1.444       .  S
C556        N560   1.158       .  T
C557        N561   1.157       .  T
C558        N563   1.157       .  T
C559        N562   1.157       .  T
C568        C569   1.410       .  A
C568        C573   1.396       .  A
C568        C582   1.444       .  S
C569        C574   1.478       .  S
C569        C570   1.402       .  A
C570        H589   1.085       .  S
C570        C571   1.396       .  A
C571        C572   1.412       .  A
C571        C583   1.443       .  S
C572        C573   1.405       .  A
C573        H588   1.085       .  S
C574        C575   1.401       .  A
C574        C579   1.411       .  A
C575        H590   1.085       .  S
C575        C576   1.396       .  A
C576        C577   1.412       .  A
C576        C580   1.444       .  S
C577        C578   1.402       .  A
C578        H591   1.085       .  S
C578        C579   1.396       .  A
C579        C581   1.443       .  S
C580        N584   1.157       .  T
C581        N585   1.157       .  T
C582        N587   1.157       .  T
C583        N586   1.157       .  T
C592        C593   1.408       .  A
C592        C597   1.399       .  A
C592        C606   1.444       .  S
C593        C598   1.477       .  S
C593        C594   1.400       .  A
C594        H613   1.083       .  S
C594        C595   1.396       .  A
C595        C596   1.414       .  A
C595        C607   1.445       .  S
C596        C597   1.405       .  A
C597        H612   1.082       .  S
C598        C599   1.400       .  A
C598        C603   1.408       .  A
C599        H614   1.085       .  S
C599        C600   1.398       .  A
C600        C601   1.416       .  A
C600        C604   1.444       .  S
C601        C602   1.406       .  A
C602        H615   1.085       .  S
C602        C603   1.396       .  A
C603        C605   1.445       .  S
C604        N608   1.157       .  T
C605        N609   1.157       .  T
C606        N611   1.157       .  T
C607        N610   1.157       .  T
C616        C617   1.409       .  A
C616        C621   1.399       .  A
C616        C630   1.444       .  S
C617        C622   1.483       .  S
C617        C618   1.403       .  A
C618        H637   1.084       .  S
C618        C619   1.404       .  A
C619        C620   1.413       .  A
C619        C631   1.444       .  S
C620        C621   1.405       .  A
C621        H636   1.084       .  S
C622        C623   1.401       .  A
C622        C627   1.408       .  A
C623        H638   1.084       .  S
C623        C624   1.401       .  A
C624        C625   1.415       .  A
C624        C628   1.441       .  S
C625        C626   1.406       .  A
C626        H639   1.084       .  S
C626        C627   1.401       .  A
C627        C629   1.443       .  S
C628        N632   1.156       .  T
C629        N633   1.157       .  T
C630        N635   1.157       .  T
C631        N634   1.157       .  T
C640        C641   1.406       .  A
C640        C645   1.395       .  A
C640        C654   1.445       .  S
C641        C646   1.474       .  S
C641        C642   1.400       .  A
C642        H661   1.085       .  S
C642        C643   1.397       .  A
C643        C644   1.417       .  A
C643        C655   1.444       .  S
C644        C645   1.407       .  A
C645        H660   1.083       .  S
C646        C647   1.400       .  A
C646        C651   1.408       .  A
C647        H662   1.085       .  S
C647        C648   1.394       .  A
C648        C649   1.413       .  A
C648        C652   1.445       .  S
C649        C650   1.404       .  A
C650        H663   1.085       .  S
C650        C651   1.398       .  A
C651        C653   1.444       .  S
C652        N656   1.157       .  T
C653        N657   1.157       .  T
C654        N659   1.157       .  T
C655        N658   1.157       .  T
C664        C665   1.412       .  A
C664        C669   1.399       .  A
C664        C678   1.443       .  S
C665        C670   1.484       .  S
C665        C666   1.402       .  A
C666        H685   1.085       .  S
C666        C667   1.398       .  A
C667        C668   1.413       .  A
C667        C679   1.445       .  S
C668        C669   1.402       .  A
C669        H684   1.085       .  S
C670        C671   1.402       .  A
C670        C675   1.409       .  A
C671        H686   1.085       .  S
C671        C672   1.399       .  A
C672        C673   1.417       .  A
C672        C676   1.444       .  S
C673        C674   1.408       .  A
C674        H687   1.082       .  S
C674        C675   1.398       .  A
C675        C677   1.444       .  S
C676        N680   1.157       .  T
C677        N681   1.157       .  T
C678        N683   1.157       .  T
C679        N682   1.157       .  T
C688        C689   1.407       .  A
C688        C693   1.397       .  A
C688        C702   1.444       .  S
C689        C694   1.469       .  S
C689        C690   1.401       .  A
C690        H709   1.084       .  S
C690        C691   1.397       .  A
C691        C692   1.408       .  A
C691        C703   1.444       .  S
C692        C693   1.403       .  A
C693        H708   1.084       .  S
C694        C695   1.398       .  A
C694        C699   1.406       .  A
C695        H710   1.085       .  S
C695        C696   1.394       .  A
C696        C697   1.414       .  A
C696        C700   1.444       .  S
C697        C698   1.406       .  A
C698        H711   1.084       .  S
C698        C699   1.399       .  A
C699        C701   1.444       .  S
C700        N704   1.157       .  T
C701        N705   1.157       .  T
C702        N707   1.157       .  T
C703        N706   1.157       .  T
C712        C713   1.412       .  A
C712        C717   1.397       .  A
C712        C726   1.444       .  S
C713        C718   1.485       .  S
C713        C714   1.406       .  A
C714        H733   1.085       .  S
C714        C715   1.398       .  A
C715        C716   1.407       .  A
C715        C727   1.443       .  S
C716        C717   1.402       .  A
C717        H732   1.085       .  S
C718        C719   1.402       .  A
C718        C723   1.410       .  A
C719        H734   1.085       .  S
C719        C720   1.398       .  A
C720        C721   1.417       .  A
C720        C724   1.444       .  S
C721        C722   1.407       .  A
C722        H735   1.083       .  S
C722        C723   1.397       .  A
C723        C725   1.445       .  S
C724        N728   1.157       .  T
C725        N729   1.157       .  T
C726        N731   1.157       .  T
C727        N730   1.157       .  T
C736        C737   1.409       .  A
C736        C741   1.398       .  A
C736        C750   1.444       .  S
C737        C742   1.475       .  S
C737        C738   1.400       .  A
C738        H757   1.085       .  S
C738        C739   1.397       .  A
C739        C740   1.413       .  A
C739        C751   1.444       .  S
C740        C741   1.401       .  A
C741        H756   1.085       .  S
C742        C743   1.400       .  A
C742        C747   1.409       .  A
C743        H758   1.085       .  S
C743        C744   1.396       .  A
C744        C745   1.413       .  A
C744        C748   1.445       .  S
C745        C746   1.403       .  A
C746        H759   1.084       .  S
C746        C747   1.399       .  A
C747        C749   1.444       .  S
C748        N752   1.157       .  T
C749        N753   1.157       .  T
C750        N755   1.157       .  T
C751        N754   1.157       .  T
C760        C761   1.408       .  A
C760        C765   1.399       .  A
C760        C774   1.444       .  S
C761        C766   1.480       .  S
C761        C762   1.402       .  A
C762        H781   1.084       .  S
C762        C763   1.399       .  A
C763        C764   1.412       .  A
C763        C775   1.444       .  S
C764        C765   1.406       .  A
C765        H780   1.084       .  S
C766        C767   1.400       .  A
C766        C771   1.409       .  A
C767        H782   1.086       .  S
C767        C768   1.399       .  A
C768        C769   1.416       .  A
C768        C772   1.444       .  S
C769        C770   1.407       .  A
C770        H783   1.085       .  S
C770        C771   1.399       .  A
C771        C773   1.444       .  S
C772        N776   1.157       .  T
C773        N777   1.157       .  T
C774        N779   1.157       .  T
C775        N778   1.157       .  T
