geometry optimzed in LAMMPS
_audit_creation_date              2020-11-30 
_audit_creation_method            'lammps2cif' 
_symmetry_space_group_name_H-M    'P1' 
_symmetry_Int_Tables_number       1 
_symmetry_cell_setting            triclinic 
loop_ 
_symmetry_equiv_pos_as_xyz 
  x,y,z 
_cell_length_a                    39.958968819433544 
_cell_length_b                    39.26579528827802 
_cell_length_c                    40.0941540253102 
_cell_angle_alpha                 88.32384382077878 
_cell_angle_beta                  88.03723250613781 
_cell_angle_gamma                 86.66254678755784 
loop_ 
_atom_site_label 
_atom_site_type_symbol 
_atom_site_fract_x 
_atom_site_fract_y 
_atom_site_fract_z 
_atom_site_charge 
Zr1        Zr  0.25181445  0.06858802  0.25234957     2.17510
O2          O  0.22801463  0.12203323  0.22850504    -0.50370
O3          O  0.28891291  0.09121602  0.29076842    -0.73570
O4          O  0.21446772  0.09595570  0.29429989    -0.80360
O5          O  0.31859042  0.05609630  0.18459423    -0.82100
O6          O  0.18296105  0.05496146  0.31844119    -0.77730
O7          O  0.29257763  0.09736375  0.21650538    -0.89360
O8          O  0.31712340  0.04630052  0.31632192    -0.75320
O9          O  0.24846652  0.03042667  0.29945674    -0.84820
O10         O  0.30021872  0.03024490  0.24898096    -0.84500
O11         O  0.20013188  0.04122869  0.24782640    -0.71260
O12         O  0.24915306  0.04093084  0.20005464    -0.83400
Zr13       Zr  0.24892603  0.42754233  0.24845227     2.26420
Zr14       Zr  0.19838228  0.00110603  0.29391097     2.06270
Zr15       Zr  0.30227786  0.49447041  0.20524666     2.10050
Zr16       Zr  0.30355163  0.48498273  0.30292819     1.78760
O17         O  0.29541351  0.00778571  0.13769818    -0.92200
O18         O  0.29653199  0.46822212  0.36161389    -0.40010
O19         O  0.30055637  0.45535429  0.25200004    -0.76640
O20         O  0.25263171  0.45612737  0.30013849    -0.95330
O21         O  0.20060153  0.46580465  0.25169451    -0.88630
O22         O  0.25189725  0.46537196  0.20096794    -0.91470
C23         C  0.31055761  0.07860012  0.31107164     1.02280
C24         C  0.31418064  0.08713085  0.19393260     1.15210
C25         C  0.19180420  0.08569900  0.31517114     1.05990
O26         O  0.20510270  0.48931794  0.36240089    -0.93630
O27         O  0.18251879  0.44183351  0.31697874    -0.89370
O28         O  0.20737588  0.40026851  0.28472468    -0.82520
C29         C  0.18648276  0.41080199  0.30779798     1.12630
O30         O  0.17039812  0.06746337  0.18010595    -0.95600
Zr31       Zr  0.19802354  0.01270083  0.19621318     1.88940
O32         O  0.21242398  0.40453819  0.20903880    -0.72250
O33         O  0.13744897  0.00837250  0.29296923    -0.51510
O34         O  0.13789361  0.00938873  0.20700788    -0.96190
O35         O  0.20557114  0.02741078  0.13705570    -0.53410
O36         O  0.18411960  0.44967439  0.18396480    -0.72770
C37         C  0.19082729  0.41738895  0.18868576     0.99570
O38         O  0.27195282  0.37418942  0.27339879    -0.61590
O39         O  0.36334438  0.48910011  0.20528801    -0.56390
O40         O  0.28875759  0.39829733  0.21027203    -0.93080
O41         O  0.31942414  0.43897999  0.18427663    -0.91500
O42         O  0.36365887  0.49004285  0.29372349    -0.91860
O43         O  0.33522369  0.43237747  0.31837211    -0.90640
C44         C  0.31154654  0.40799697  0.18932193     1.18420
H45         H  0.32072409  0.04207625  0.24928668     0.34360
H46         H  0.25126185  0.43989961  0.31864552     0.45210
H47         H  0.25237119  0.45301555  0.18046480     0.38740
H48         H  0.18141228  0.05786252  0.24955421     0.35220
H49         H  0.31725078  0.47475796  0.37204039     0.27010
H50         H  0.13015970  0.01097960  0.31666152     0.32940
H51         H  0.12882416  0.00363271  0.18533097     0.38850
H52         H  0.37205380  0.49484853  0.31595661     0.33310
H53         H  0.37046624  0.49056687  0.18141250     0.32190
H54         H  0.31914675  0.00432194  0.13000450     0.33910
H55         H  0.18497395  0.02055750  0.12662170     0.32840
H56         H  0.31921137  0.41429682  0.31631824     0.36840
H57         H  0.29659436  0.37527532  0.27070100     0.29570
H58         H  0.23316389  0.13965663  0.24443547     0.33800
H59         H  0.15149375  0.06200366  0.16623861     0.36650
H60         H  0.36501059  0.01006687  0.21292841     0.29270
H61         H  0.26755940  0.37635216  0.29772252     0.42140
H62         H  0.21199259  0.01075913  0.36244066     0.32190
H63         H  0.27465982  0.00925456  0.36205126     0.39810
H64         H  0.22949664  0.49234822  0.13795565     0.31660
H65         H  0.13272608  0.03120424  0.28247402     0.31720
H66         H  0.20341646  0.12030707  0.23082826     0.31990
Zr67       Zr  0.43705410  0.24437408  0.24890302     2.17510
O68         O  0.38643614  0.26791579  0.27735770    -0.50370
O69         O  0.41202734  0.20799452  0.21093832    -0.73570
O70         O  0.40751024  0.28249614  0.20916848    -0.80360
O71         O  0.45526099  0.17030031  0.31022946    -0.82100
O72         O  0.44675813  0.31308690  0.18116924    -0.77730
O73         O  0.41208721  0.19914013  0.28399318    -0.89360
O74         O  0.45456086  0.17925996  0.18252335    -0.75320
O75         O  0.47162992  0.24776815  0.19926272    -0.84820
O76         O  0.47489461  0.19534928  0.24867226    -0.84500
O77         O  0.46529887  0.29677847  0.25108103    -0.71260
O78         O  0.46752073  0.24810596  0.29907346    -0.83400
Zr79       Zr  0.06971948  0.25285608  0.25245261     2.26420
Zr80       Zr  0.50152517  0.29837747  0.20212955     2.06270
Zr81       Zr  0.00557999  0.19960954  0.29791441     2.10050
Zr82       Zr  0.00834895  0.19895316  0.19953921     1.78760
O83         O  0.49575370  0.20414558  0.35778565    -0.92200
O84         O  0.00842333  0.20888297  0.13928759    -0.40010
O85         O  0.04100549  0.20104812  0.24867905    -0.76640
O86         O  0.03938072  0.24948787  0.20186892    -0.95330
O87         O  0.03248215  0.30231859  0.25141070    -0.88630
O88         O  0.03454680  0.25043676  0.30151204    -0.91470
C89         C  0.42322365  0.18626191  0.18960804     1.02280
C90         C  0.42443568  0.17458707  0.30276351     1.15210
C91         C  0.41656067  0.30471372  0.18695741     1.05990
O92         O  0.00930272  0.29726762  0.14176877    -0.93630
O93         O  0.05434189  0.32302627  0.18654652    -0.89370
O94         O  0.09510990  0.29824222  0.21902912    -0.82520
C95         C  0.08461604  0.31984596  0.19646199     1.12630
O96         O  0.44591153  0.32513720  0.32510016    -0.95600
Zr97       Zr  0.49750455  0.29944361  0.30005316     1.88940
O98         O  0.09362514  0.28900295  0.29195469    -0.72250
O99         O  0.49293262  0.36031909  0.20291976    -0.51510
O100        O  0.49373887  0.36060380  0.28739037    -0.96190
O101        O  0.49505400  0.29313664  0.36077374    -0.53410
O102        O  0.05063303  0.31903496  0.31837593    -0.72770
C103        C  0.08197447  0.31127931  0.31265173     0.99570
O104        O  0.12102279  0.23019394  0.22448126    -0.61590
O105        O  0.01932967  0.13834558  0.30135622    -0.56390
O106        O  0.09976949  0.21241690  0.28999514    -0.93080
O107        O  0.05983273  0.18349233  0.31862457    -0.91500
O108        O  0.01438428  0.13738889  0.20897039    -0.91860
O109        O  0.05825907  0.17305681  0.17175903    -0.90640
C110        C  0.09029675  0.19050565  0.31234075     1.18420
H111        H  0.46355682  0.17432674  0.24837387     0.34360
H112        H  0.05466358  0.25067051  0.18272134     0.45210
H113        H  0.04741297  0.24976424  0.32149655     0.38740
H114        H  0.44901470  0.31594600  0.25058253     0.35220
H115        H  0.00498807  0.18625959  0.13009072     0.27010
H116        H  0.48899255  0.36738303  0.17939865     0.32940
H117        H  0.50357126  0.37106209  0.30669836     0.38850
H118        H  0.00493253  0.12770537  0.18904587     0.33310
H119        H  0.01035627  0.13078318  0.32350969     0.32190
H120        H  0.50458375  0.18206357  0.36744615     0.33870
H121        H  0.50317577  0.31466855  0.36887145     0.32840
H122        H  0.07720469  0.18209581  0.18335234     0.36840
H123        H  0.11971601  0.20509495  0.22614295     0.29570
H124        H  0.36790004  0.26260221  0.26294113     0.33800
H125        H  0.45278900  0.34429234  0.33834205     0.36650
H126        H  0.50524154  0.12793721  0.28525686     0.29270
H127        H  0.11799302  0.23584192  0.20050299     0.42140
H128        H  0.48877122  0.28636482  0.13388398     0.32190
H129        H  0.48813458  0.22207952  0.13497127     0.39810
H130        H  0.01276373  0.27580399  0.36637795     0.31660
H131        H  0.47097115  0.36474472  0.21464530     0.31720
H132        H  0.38779523  0.29297690  0.27502607     0.31990
Zr133      Zr  0.25161769  0.25053079  0.06671061     2.17510
O134        O  0.22342764  0.22759703  0.11669993    -0.50370
O135        O  0.28571607  0.28987909  0.09369020    -0.73570
O136        O  0.28721988  0.20776376  0.09578509    -0.80360
O137        O  0.18375971  0.32003712  0.05462023    -0.82100
O138        O  0.31979475  0.17991725  0.05633241    -0.77730
O139        O  0.21070872  0.28846982  0.09508407    -0.89360
O140        O  0.31707521  0.31514317  0.05260939    -0.75320
O141        O  0.30243239  0.24768440  0.03359549    -0.84820
O142        O  0.25126465  0.30094460  0.03211529    -0.84500
O143        O  0.25033675  0.19933164  0.03559220    -0.71260
O144        O  0.20200557  0.24970642  0.03477792    -0.83400
Zr145      Zr  0.24732537  0.24579112  0.43601109     2.26420
Zr146      Zr  0.30073117  0.19770794  0.00130419     2.06270
Zr147      Zr  0.20263355  0.29995164  0.99975239     2.10050
Zr148      Zr  0.29869976  0.29699068  0.49885642     1.78760
O149        O  0.14177326  0.29833120  0.00190500    -0.92200
O150        O  0.35951024  0.28733555  0.49626863    -0.40010
O151        O  0.24941034  0.29699308  0.46683589    -0.76640
O152        O  0.29791451  0.24686638  0.46649196    -0.95330
O153        O  0.24916660  0.19547173  0.47063167    -0.88630
O154        O  0.19778152  0.24887951  0.47092996    -0.91470
C155        C  0.30779840  0.31035724  0.08320899     1.02280
C156        C  0.18955128  0.31218568  0.08537228     1.15210
C157        C  0.31046035  0.18572258  0.08670835     1.05990
O158        O  0.35936037  0.19882071  0.49665729    -0.93630
O159        O  0.31596828  0.17411448  0.44809852    -0.89370
O160        O  0.28374975  0.20203147  0.40901912    -0.82520
C161        C  0.30684390  0.17973844  0.41787884     1.12630
O162        O  0.17490897  0.17423019  0.05141018    -0.95600
Zr163      Zr  0.20202559  0.19967511  0.00203185     1.88940
O164        O  0.20482460  0.21463524  0.41026280    -0.72250
O165        O  0.29959489  0.13574142  0.00551107    -0.51510
O166        O  0.21309860  0.13798040  0.00286111    -0.96190
O167        O  0.14099892  0.20778712  0.00250048    -0.53410
O168        O  0.18061975  0.18259150  0.45163379    -0.72770
C169        C  0.18443437  0.19248898  0.42103750     0.99570
O170        O  0.27591905  0.26702878  0.38535947    -0.61590
O171        O  0.20010068  0.36109868  0.49956608    -0.56390
O172        O  0.21496224  0.29178831  0.40783699    -0.93080
O173        O  0.18254467  0.31923446  0.44772781    -0.91500
O174        O  0.28886726  0.35880719  0.49716022    -0.91860
O175        O  0.32491316  0.32407008  0.44999702    -0.90640
C176        C  0.19220796  0.31417799  0.41730504     1.18420
H177        H  0.25019658  0.32130282  0.04514647     0.34360
H178        H  0.31719931  0.24580942  0.45127079     0.45210
H179        H  0.17775011  0.25067097  0.45803946     0.38740
H180        H  0.25023990  0.17965739  0.05062452     0.35220
H181        H  0.36816456  0.30953138  0.50184702     0.27010
H182        H  0.32292025  0.12772735  0.01039016     0.32940
H183        H  0.19357893  0.12898304  0.99217257     0.38850
H184        H  0.30955643  0.36760396  0.50574030     0.33310
H185        H  0.17660425  0.36900658  0.50494748     0.32190
H186        H  0.13351071  0.32243182  0.99869624     0.33870
H187        H  0.13328969  0.18708817  0.99227638     0.32840
H188        H  0.31603042  0.31261779  0.43077409     0.36840
H189        H  0.27494800  0.29217003  0.38710456     0.29570
H190        H  0.23863377  0.23071783  0.13522599     0.33800
H191        H  0.16138270  0.15606051  0.04319034     0.36650
H192        H  0.21499388  0.36868057  0.01499800     0.29270
H193        H  0.29996974  0.26030607  0.38801816     0.42140
H194        H  0.36829286  0.20800122  0.01788743     0.32190
H195        H  0.36631392  0.27266860  0.01837782     0.39810
H196        H  0.13315597  0.22527494  0.49260447     0.31660
H197        H  0.28657681  0.13091234  0.02639758     0.31720
H198        H  0.22384258  0.20261649  0.11378521     0.31990
Zr199      Zr  0.00175405  0.00963744  0.43513117     2.17510
O200        O  0.49187931  0.48477994  0.37822088    -0.50370
O201        O  0.04023102  0.05043118  0.41047952    -0.73570
O202        O  0.45579610  0.04699456  0.41206226    -0.80360
O203        O  0.06920401  0.43127812  0.44648780    -0.82100
O204        O  0.42435432  0.07124597  0.45452819    -0.77730
O205        O  0.04375588  0.46395289  0.40582786    -0.89360
O206        O  0.06805487  0.07305340  0.45223592    -0.75320
O207        O  0.99844447  0.05712310  0.47109132    -0.84820
O208        O  0.04977088  0.00361430  0.46921183    -0.84500
O209        O  0.45140195  0.00567237  0.46936612    -0.71260
O210        O  0.00247282  0.45326484  0.46450232    -0.83400
Zr211      Zr  0.49033828  0.49175333  0.07211161     2.26420
Zr212      Zr  0.45015362  0.05113417  0.00135837     2.06270
Zr213      Zr  0.04764194  0.44898694  0.00238324     2.10050
Zr214      Zr  0.05038671  0.05102463  0.00405002     1.78760
O215        O  0.04993106  0.38844976  0.50066582    -0.92200
O216        O  0.04084316  0.11265071  0.00795267    -0.40010
O217        O  0.04565073  0.49296056  0.04253467    -0.76640
O218        O  0.49785059  0.04653497  0.03559255    -0.95330
O219        O  0.44481459  0.50111394  0.03572463    -0.88630
O220        O  0.49441022  0.44633359  0.03349296    -0.91470
C221        C  0.06220719  0.06969904  0.42128890     1.02280
C222        C  0.06404868  0.43950978  0.41582273     1.15210
C223        C  0.43038554  0.06537685  0.42369685     1.05990
O224        O  0.44479476  0.11260066  0.00845948    -0.93630
O225        O  0.43066029  0.06784252  0.05611173    -0.89370
O226        O  0.45513698  0.03275023  0.09535574    -0.82520
C227        C  0.43551467  0.05814785  0.08640491     1.12630
O228        O  0.42998821  0.42667830  0.44459840    -0.95600
Zr229      Zr  0.45101042  0.45081583  0.49464614     1.88940
O230        O  0.45029048  0.45224779  0.09299451    -0.72250
O231        O  0.38965294  0.04715226  0.99899720    -0.51510
O232        O  0.39064498  0.46337057  0.49267335    -0.96190
O233        O  0.45916539  0.38882254  0.49299753    -0.53410
O234        O  0.42577705  0.43025831  0.04862653    -0.72770
C235        C  0.42988853  0.43280364  0.08017813     0.99570
O236        O  0.01784731  0.01550740  0.11830722    -0.61590
O237        O  0.10872433  0.44510516  0.00385585    -0.56390
O238        O  0.02688076  0.44597574  0.09737596    -0.93080
O239        O  0.06377519  0.42645483  0.05674260    -0.91500
O240        O  0.11075556  0.03821957  0.00404916    -0.91860
O241        O  0.07656765  0.07410875  0.05178894    -0.90640
C242        C  0.05265291  0.42775389  0.08716138     1.18420
H243        H  0.07028327  0.00330772  0.45572821     0.34360
H244        H  0.49697871  0.06488847  0.05117922     0.45210
H245        H  0.49353719  0.42441725  0.04497421     0.38740
H246        H  0.43222245  0.00639987  0.45533066     0.35220
H247        H  0.06242347  0.12200122  0.00047941     0.27010
H248        H  0.38027743  0.07067013  0.00282333     0.32940
H249        H  0.37805181  0.45240686  0.00457880     0.38850
H250        H  0.12059995  0.05896715  0.99425232     0.33310
H251        H  0.11505252  0.42038394  0.00292718     0.32190
H252        H  0.07388258  0.38086148  0.50249376     0.33870
H253        H  0.43810477  0.38012041  0.50274528     0.32840
H254        H  0.06586547  0.06277510  0.07144109     0.36840
H255        H  0.04253533  0.01353652  0.11483638     0.29570
H256        H  0.49523105  0.50340394  0.36145910     0.33800
H257        H  0.41076788  0.41331600  0.45224971     0.36650
H258        H  0.11710298  0.46219275  0.48069873     0.29270
H259        H  0.01264880  0.04047569  0.11748355     0.42140
H260        H  0.45968177  0.12078693  0.48241258     0.32190
H261        H  0.02330275  0.11936112  0.48999311     0.39810
H262        H  0.47326304  0.38636465  0.00485668     0.31660
H263        H  0.38103571  0.03853609  0.49446472     0.31720
H264        H  0.46735059  0.48225453  0.37959559     0.31990
C265        C  0.37220730  0.36576213  0.12204991    -0.01520
C266        C  0.37323233  0.12317019  0.36669265    -0.01520
C267        C  0.12350526  0.37089452  0.37277355    -0.01520
C268        C  0.12944502  0.12812497  0.37994983    -0.01520
C269        C  0.37868246  0.12767387  0.13069810    -0.01520
C270        C  0.12772719  0.37859010  0.12929977    -0.01520
C271        C  0.07132751  0.40690737  0.11202790    -0.15470
C272        C  0.10484406  0.40221595  0.10818074    -0.30640
H273        H  0.05776223  0.39604897  0.13331847     0.13550
H274        H  0.11718481  0.41713956  0.08851212     0.14130
C275        C  0.41762201  0.07814544  0.11259670    -0.15470
C276        C  0.39734070  0.10568355  0.10469440    -0.30640
H277        H  0.42131579  0.07071199  0.13859307     0.13550
H278        H  0.39398697  0.11249265  0.07845406     0.14130
C279        C  0.10720978  0.10867332  0.40507870    -0.15470
C280        C  0.08248489  0.08892269  0.39623899    -0.30640
H281        H  0.11159804  0.11084653  0.43155095     0.13550
H282        H  0.07754400  0.08638509  0.36997226     0.14130
C283        C  0.10402219  0.39275204  0.39847795    -0.15470
C284        C  0.08268414  0.41928204  0.39015602    -0.30640
H285        H  0.10756255  0.38664544  0.42483250     0.13550
H286        H  0.07879186  0.42595498  0.36402218     0.14130
C287        C  0.40494511  0.10572234  0.38166658    -0.15470
C288        C  0.40335833  0.07785053  0.40175279    -0.30640
H289        H  0.42902226  0.11700250  0.37751348     0.13550
H290        H  0.37901157  0.06765212  0.40725125     0.14130
C291        C  0.39076938  0.38742450  0.09575465    -0.15470
C292        C  0.41044194  0.41217578  0.10435610    -0.30640
H293        H  0.38834012  0.38266000  0.06936572     0.13550
H294        H  0.41311499  0.41690509  0.13069644     0.14130
C295        C  0.17048672  0.33150219  0.11165107    -0.15470
C296        C  0.15104152  0.35964069  0.10421314    -0.30640
H297        H  0.17160585  0.32179392  0.13723490     0.13550
H298        H  0.15037463  0.36802762  0.07810801     0.14130
C299        C  0.14298180  0.34324216  0.39291802    -0.15470
C300        C  0.17636094  0.33647494  0.39161718    -0.30640
H301        H  0.12823463  0.32870452  0.41104858     0.13550
H302        H  0.19254549  0.34812955  0.37293652     0.14130
C303        C  0.32449036  0.16038271  0.39067460    -0.15470
C304        C  0.35092797  0.13789124  0.39546114    -0.30640
H305        H  0.31732118  0.16752465  0.36551703     0.13550
H306        H  0.35852192  0.13236388  0.42093171     0.14130
C307        C  0.35979434  0.15614624  0.11090068    -0.15470
C308        C  0.32662371  0.16416110  0.11282651    -0.30640
H309        H  0.37464448  0.16995035  0.09227798     0.13550
H310        H  0.31049528  0.15345045  0.13211231     0.14130
C311        C  0.35478821  0.33950600  0.10296705    -0.15470
C312        C  0.32284150  0.33121328  0.10763873    -0.30640
H313        H  0.36993386  0.32643856  0.08360162     0.13550
H314        H  0.30696102  0.34077845  0.12804581     0.14130
C315        C  0.16283236  0.17810229  0.39688384    -0.15470
C316        C  0.15454633  0.14550554  0.40045430    -0.30640
H317        H  0.15358991  0.19472577  0.37685858     0.13550
H318        H  0.16716954  0.12955779  0.41942523     0.14130
C319        C  0.09831689  0.35436214  0.35169072    -0.15470
C320        C  0.10687569  0.32850994  0.33132394    -0.30640
H321        H  0.07194744  0.36267707  0.35442981     0.13550
H322        H  0.13278249  0.31874246  0.32914425     0.14130
C323        C  0.10684812  0.35251507  0.14853441    -0.15470
C324        C  0.10872176  0.34329637  0.18106052    -0.30640
H325        H  0.08927196  0.33965579  0.13377478     0.13550
H326        H  0.12759918  0.35273523  0.19657163     0.14130
C327        C  0.38406517  0.15276950  0.34390160    -0.15470
C328        C  0.40310394  0.14785631  0.31616612    -0.30640
H329        H  0.37936632  0.17879064  0.35224867     0.13550
H330        H  0.40967670  0.12188913  0.30866446     0.14130
C331        C  0.11583002  0.17146684  0.33232956    -0.15470
C332        C  0.10654143  0.15258664  0.35951320    -0.30640
H333        H  0.14182454  0.17269675  0.32426539     0.13550
H334        H  0.08005362  0.15350467  0.36685910     0.14130
C335        C  0.39052750  0.32184222  0.16627673    -0.15470
C336        C  0.39785799  0.34721422  0.14424325    -0.30640
H337        H  0.36542610  0.31277084  0.16846790     0.13550
H338        H  0.42370400  0.35437575  0.14153152     0.14130
C339        C  0.39745267  0.16889614  0.17213599    -0.15470
C340        C  0.40485332  0.14303501  0.15158585    -0.30640
H341        H  0.37161783  0.17866472  0.17538619     0.13550
H342        H  0.43106092  0.13438142  0.14803385     0.14130
C343        C  0.14557144  0.39451939  0.35182104    -0.15470
C344        C  0.16563791  0.38553555  0.32536962    -0.30640
H345        H  0.14495698  0.42098983  0.35920952     0.13550
H346        H  0.16782737  0.35945361  0.31722812     0.14130
C347        C  0.35600145  0.10413218  0.15113846    -0.15470
C348        C  0.33568300  0.11268245  0.17749546    -0.30640
H349        H  0.35602597  0.07791666  0.14307667     0.13550
H350        H  0.33396448  0.13852165  0.18640317     0.14130
C351        C  0.35519048  0.09656236  0.34764911    -0.15470
C352        C  0.32835779  0.10416785  0.32908366    -0.30640
H353        H  0.36484928  0.07010844  0.34870475     0.13550
H354        H  0.31958737  0.13060000  0.32561050     0.14130
C355        C  0.17452097  0.11093595  0.33706375    -0.15470
C356        C  0.14851539  0.10268731  0.35755492    -0.30640
H357        H  0.18366805  0.13640363  0.33673374     0.13550
H358        H  0.14100137  0.07649566  0.35854393     0.14130
C359        C  0.33041095  0.38163806  0.16981462    -0.15470
C360        C  0.34864338  0.39011184  0.14221337    -0.30640
H361        H  0.32916272  0.35540373  0.17845449     0.13550
H362        H  0.34762933  0.41687391  0.13424721     0.14130
C363        C  0.14668862  0.40229506  0.15070051    -0.15470
C364        C  0.17297708  0.39269725  0.16948884    -0.30640
H365        H  0.13884087  0.42932552  0.14993050     0.13550
H366        H  0.18153495  0.36603037  0.17128899     0.14130
Zr367      Zr  0.25798971  0.06432805  0.76000271     2.17510
O368        O  0.24584910  0.12424514  0.74459717    -0.50370
O369        O  0.29814671  0.07647137  0.80173196    -0.73570
O370        O  0.21740281  0.09282722  0.79833149    -0.80360
O371        O  0.31806788  0.05517416  0.68545246    -0.82100
O372        O  0.18422569  0.05298156  0.82185703    -0.77730
O373        O  0.29537331  0.09420601  0.72172919    -0.89360
O374        O  0.31442531  0.02656754  0.82828459    -0.75320
O375        O  0.25243206  0.02239946  0.80362444    -0.84820
O376        O  0.30359751  0.02307913  0.75257261    -0.84500
O377        O  0.20412139  0.04198180  0.75247523    -0.71260
O378        O  0.25168984  0.04201528  0.70558067    -0.83400
Zr379      Zr  0.24656961  0.43163409  0.74312751     2.26420
Zr380      Zr  0.19949087  0.99916043  0.79585606     2.06270
Zr381      Zr  0.29843381  0.49954775  0.69862405     2.10050
Zr382      Zr  0.30149455  0.49153542  0.79634697     1.78760
O383        O  0.29691055  0.00963742  0.63886954    -0.92200
O384        O  0.29435858  0.48438280  0.85664650    -0.40010
O385        O  0.29770612  0.46089361  0.74592506    -0.76640
O386        O  0.25133847  0.46085014  0.79440910    -0.95330
O387        O  0.19773356  0.46912043  0.74667636    -0.88630
O388        O  0.24852196  0.46956935  0.69548334    -0.91470
C389        C  0.31389199  0.05905367  0.82449180     1.02280
C390        C  0.31442889  0.08550588  0.69664780     1.15210
C391        C  0.19338192  0.08366634  0.81808082     1.05990
O392        O  0.20342003  0.49153776  0.85723841    -0.93630
O393        O  0.18113661  0.44549801  0.81383218    -0.89370
O394        O  0.20522156  0.40425152  0.78077786    -0.82520
C395        C  0.18499695  0.41450632  0.80470304     1.12630
O396        O  0.17193022  0.07341983  0.68584338    -0.95600
Zr397      Zr  0.19880069  0.01751775  0.69907595     1.88940
O398        O  0.21291988  0.40898793  0.70063108    -0.72250
O399        O  0.13868260  0.00731267  0.79408597    -0.51510
O400        O  0.13866332  0.01648772  0.71107843    -0.96190
O401        O  0.20769542  0.03660629  0.64121940    -0.53410
O402        O  0.18240526  0.45350738  0.67683247    -0.72770
C403        C  0.19126614  0.42161803  0.68016039     0.99570
O404        O  0.26872392  0.37766615  0.76766316    -0.61590
O405        O  0.35945945  0.49238118  0.69684460    -0.56390
O406        O  0.28786425  0.40283666  0.70595466    -0.93080
O407        O  0.31637640  0.44402525  0.67810092    -0.91500
O408        O  0.36167113  0.48803239  0.78396223    -0.91860
O409        O  0.32907622  0.43882658  0.81787066    -0.90640
C410        C  0.30990238  0.41279041  0.68429277     1.18420
H411        H  0.32487889  0.03339758  0.75370852     0.34360
H412        H  0.25068453  0.44471566  0.81304891     0.45210
H413        H  0.24927214  0.45732439  0.67490761     0.38740
H414        H  0.18647098  0.05967081  0.75501239     0.35220
H415        H  0.31665900  0.48826762  0.86539153     0.27010
H416        H  0.13104957  0.00912920  0.81776104     0.32940
H417        H  0.12894928  0.01048234  0.68978487     0.38850
H418        H  0.37181584  0.49517920  0.80464208     0.33310
H419        H  0.36629200  0.49925215  0.67376035     0.32190
H420        H  0.32089889  0.00810734  0.63169950     0.33910
H421        H  0.18764003  0.03009646  0.62960821     0.32840
H422        H  0.31663819  0.42044934  0.80846819     0.36840
H423        H  0.29340911  0.37817951  0.76492001     0.29570
H424        H  0.25025004  0.13728416  0.76460655     0.33800
H425        H  0.15334057  0.06911172  0.67109366     0.36650
H426        H  0.36582746  0.00999288  0.71083656     0.29270
H427        H  0.26452992  0.37969040  0.79202715     0.42140
H428        H  0.21447600  0.00602727  0.86439596     0.32190
H429        H  0.27332989  0.97818696  0.86305821     0.39810
H430        H  0.22449958  0.49739799  0.63212693     0.31660
H431        H  0.13445762  0.03056502  0.78434808     0.31720
H432        H  0.22125433  0.12679753  0.74207407     0.31990
Zr433      Zr  0.43615989  0.24507894  0.74074790     2.17510
O434        O  0.37949060  0.26253726  0.76053202    -0.50370
O435        O  0.42264408  0.20390316  0.69938024    -0.73570
O436        O  0.40751780  0.28261942  0.70062910    -0.80360
O437        O  0.44530347  0.18556874  0.81407137    -0.82100
O438        O  0.44629828  0.31729593  0.67790370    -0.77730
O439        O  0.40634964  0.20695166  0.77789579    -0.89360
O440        O  0.47157485  0.18532311  0.67343324    -0.75320
O441        O  0.47676463  0.24954337  0.69630001    -0.84820
O442        O  0.47659301  0.19878796  0.74838155    -0.84500
O443        O  0.45848012  0.30013345  0.74645494    -0.71260
O444        O  0.45893945  0.25326192  0.79444717    -0.83400
Zr445      Zr  0.06373569  0.26322726  0.76451987     2.26420
Zr446      Zr  0.50009422  0.30333188  0.70238492     2.06270
Zr447      Zr  0.99943777  0.20389680  0.80326018     2.10050
Zr448      Zr  0.01573716  0.20213969  0.70620577     1.78760
O449        O  0.48999730  0.20917240  0.86142787    -0.92200
O450        O  0.02753769  0.21114947  0.64666609    -0.40010
O451        O  0.04073488  0.20848502  0.75895329    -0.76640
O452        O  0.04030116  0.25569029  0.71095344    -0.95330
O453        O  0.02281526  0.30916775  0.75762042    -0.88630
O454        O  0.02323062  0.25781487  0.80921114    -0.91470
C455        C  0.43957188  0.18703903  0.67681687     1.02280
C456        C  0.41546847  0.18807929  0.80289827     1.15210
C457        C  0.41642263  0.30696444  0.68094836     1.05990
O458        O  0.00696899  0.30038359  0.64483191    -0.93630
O459        O  0.05157832  0.32388534  0.68904829    -0.89370
O460        O  0.09079075  0.30346343  0.72558180    -0.82520
C461        C  0.08148051  0.32166159  0.69989216     1.12630
O462        O  0.42770071  0.32537244  0.82115768    -0.95600
Zr463      Zr  0.48334979  0.30729443  0.79911089     1.88940
O464        O  0.07883781  0.30715414  0.80199839    -0.72250
O465        O  0.49183024  0.36528946  0.70223092    -0.51510
O466        O  0.46969904  0.36707338  0.78463057    -0.96190
O467        O  0.47776000  0.30204667  0.85986797    -0.53410
O468        O  0.03001286  0.33521960  0.81878273    -0.72770
C469        C  0.06211954  0.33128339  0.81727541     0.99570
O470        O  0.11953624  0.24082036  0.74662473    -0.61590
O471        O  0.01185895  0.14238305  0.80561556    -0.56390
O472        O  0.09100550  0.22747224  0.80784054    -0.93080
O473        O  0.05358801  0.18905343  0.82659739    -0.91500
O474        O  0.02012311  0.14089467  0.71815274    -0.91860
O475        O  0.06989914  0.17697276  0.68727374    -0.90640
C476        C  0.08266891  0.20140249  0.82576581     1.18420
H477        H  0.46638113  0.17711774  0.74782858     0.34360
H478        H  0.05743291  0.25730006  0.69348762     0.45210
H479        H  0.03373693  0.25885094  0.83046059     0.38740
H480        H  0.44101712  0.31795377  0.74369303     0.35220
H481        H  0.02516366  0.18864398  0.63674671     0.27010
H482        H  0.48982086  0.37211174  0.67837591     0.32940
H483        H  0.47562783  0.37977925  0.80436162     0.38850
H484        H  0.01364703  0.13045956  0.69731180     0.33310
H485        H  0.00336289  0.13482524  0.82794915     0.32190
H486        H  0.49093058  0.18496441  0.86915892     0.33870
H487        H  0.49301887  0.31846091  0.86848372     0.32840
H488        H  0.08647806  0.19072753  0.69771661     0.36840
H489        H  0.11916434  0.21579220  0.75030427     0.29570
H490        H  0.36450740  0.25736063  0.74240596     0.33800
H491        H  0.43098747  0.34489583  0.83555179     0.36650
H492        H  0.49152300  0.13666998  0.78972799     0.29270
H493        H  0.12028398  0.24378400  0.72200576     0.42140
H494        H  0.49130211  0.28828840  0.63405767     0.32190
H495        H  0.51516377  0.22700663  0.63653142     0.39810
H496        H  0.99448538  0.28000070  0.86962967     0.31660
H497        H  0.46903866  0.36986547  0.71214722     0.31720
H498        H  0.37888336  0.28777251  0.76099259     0.31990
Zr499      Zr  0.25080274  0.25036538  0.56853211     2.17510
O500        O  0.22354613  0.22913569  0.61976338    -0.50370
O501        O  0.28852190  0.28714829  0.59467757    -0.73570
O502        O  0.28521274  0.20632168  0.59684362    -0.80360
O503        O  0.18043192  0.31743206  0.55745118    -0.82100
O504        O  0.31784407  0.17866555  0.55727727    -0.77730
O505        O  0.20972567  0.28800883  0.59765203    -0.89360
O506        O  0.31644020  0.31405466  0.55230896    -0.75320
O507        O  0.30082261  0.24726787  0.53411477    -0.84820
O508        O  0.24948676  0.30066920  0.53377698    -0.84500
O509        O  0.24890926  0.19888514  0.53767459    -0.71260
O510        O  0.20058657  0.24885460  0.53761926    -0.83400
Zr511      Zr  0.25138691  0.24684307  0.93376324     2.26420
Zr512      Zr  0.29859843  0.19696870  0.50228309     2.06270
Zr513      Zr  0.20007010  0.29901698  0.50246424     2.10050
Zr514      Zr  0.30127106  0.29754941  0.99853875     1.78760
O515        O  0.13912246  0.29867088  0.50448136    -0.92200
O516        O  0.36199992  0.28732531  0.99829809    -0.40010
O517        O  0.25276056  0.29790216  0.96514090    -0.76640
O518        O  0.30109776  0.24770881  0.96572769    -0.95330
O519        O  0.25212211  0.19654321  0.96850677    -0.88630
O520        O  0.20107739  0.24993480  0.96769652    -0.91470
C521        C  0.30992444  0.30804285  0.58335787     1.02280
C522        C  0.18702986  0.31032699  0.58814009     1.15210
C523        C  0.30825521  0.18419719  0.58765976     1.05990
O524        O  0.36167510  0.19766898  0.99705016    -0.93630
O525        O  0.31997206  0.17576398  0.94741835    -0.89370
O526        O  0.29063840  0.20498642  0.90698644    -0.82520
C527        C  0.31288137  0.18208999  0.91662354     1.12630
O528        O  0.17530632  0.17187324  0.55532731    -0.95600
Zr529      Zr  0.19984009  0.19855642  0.50526863     1.88940
O530        O  0.21496264  0.21062354  0.90569605    -0.72250
O531        O  0.29927523  0.13489017  0.50608299    -0.51510
O532        O  0.21205508  0.13706874  0.50417948    -0.96190
O533        O  0.13886186  0.20673289  0.50904706    -0.53410
O534        O  0.18662713  0.18298473  0.94732372    -0.72770
C535        C  0.19353511  0.18953616  0.91637405     0.99570
O536        O  0.27962419  0.27247062  0.88516223    -0.61590
O537        O  0.20146116  0.36206877  0.99625537    -0.56390
O538        O  0.21398296  0.28864310  0.90481041    -0.93080
O539        O  0.18603959  0.32021530  0.94475482    -0.91500
O540        O  0.29125929  0.35934203  0.99671330    -0.91860
O541        O  0.32918268  0.32480843  0.95078262    -0.90640
C542        C  0.19264466  0.31258027  0.91418311     1.18420
H543        H  0.24874786  0.32098527  0.54686013     0.34360
H544        H  0.32080711  0.24669169  0.95106811     0.45210
H545        H  0.18151425  0.25137394  0.95412240     0.38740
H546        H  0.24909390  0.17921057  0.55271139     0.35220
H547        H  0.37061677  0.30957202  0.00375780     0.27010
H548        H  0.32269369  0.12751706  0.51125801     0.32940
H549        H  0.19216528  0.12791228  0.49431262     0.38850
H550        H  0.31159105  0.36820734  0.00598878     0.33310
H551        H  0.17812704  0.36961798  0.00274882     0.32190
H552        H  0.13132245  0.32296131  0.50174114     0.33870
H553        H  0.13051263  0.18604439  0.49936573     0.32840
H554        H  0.32178536  0.31277229  0.93122398     0.36840
H555        H  0.27685972  0.29738889  0.88841933     0.29570
H556        H  0.23969277  0.23153091  0.63762808     0.33800
H557        H  0.16191235  0.15345803  0.54739869     0.36650
H558        H  0.21273485  0.36732983  0.51908586     0.29270
H559        H  0.30383586  0.26700746  0.88829719     0.42140
H560        H  0.36637690  0.20690876  0.51836220     0.32190
H561        H  0.36467944  0.27226738  0.51586682     0.39810
H562        H  0.13608136  0.22634153  0.98584508     0.31660
H563        H  0.28607472  0.12957819  0.52673532     0.31720
H564        H  0.22254161  0.20422806  0.61706851     0.31990
Zr565      Zr  0.00548955  0.00995023  0.93421520     2.17510
O566        O  0.49886386  0.50335680  0.88224640    -0.50370
O567        O  0.04423504  0.04830632  0.90777036    -0.73570
O568        O  0.46183088  0.05173076  0.90770091    -0.80360
O569        O  0.06698622  0.43161346  0.94706737    -0.82100
O570        O  0.43629210  0.08087588  0.95077437    -0.77730
O571        O  0.04725791  0.47153429  0.90916026    -0.89360
O572        O  0.06948961  0.07330453  0.94988044    -0.75320
O573        O  0.00267503  0.05691357  0.97064827    -0.84820
O574        O  0.05367842  0.00401617  0.96820609    -0.84500
O575        O  0.45162939  0.00522946  0.96318144    -0.71260
O576        O  0.00226962  0.45974941  0.96541324    -0.83400
Zr577      Zr  0.49222195  0.49519107  0.56438398     2.26420
Zr578      Zr  0.44893788  0.05292653  0.50621945     2.06270
Zr579      Zr  0.04914393  0.45051011  0.50053127     2.10050
Zr580      Zr  0.04628664  0.05068041  0.50504785     1.78760
O581        O  0.04397298  0.38746785  0.99942091    -0.92200
O582        O  0.03749181  0.11233814  0.50903935    -0.40010
O583        O  0.04471789  0.49855233  0.53578562    -0.76640
O584        O  0.49687791  0.04892738  0.54025666    -0.95330
O585        O  0.44514760  0.49890860  0.52925111    -0.88630
O586        O  0.49769419  0.44681635  0.52987831    -0.91470
C587        C  0.06471353  0.06886812  0.91878802     1.02280
C588        C  0.06451841  0.44385848  0.91712592     1.15210
C589        C  0.44169101  0.07552139  0.91985645     1.05990
O590        O  0.44919375  0.11494368  0.50441022    -0.93630
O591        O  0.43180771  0.07249791  0.56116813    -0.89370
O592        O  0.45479774  0.03632859  0.60048199    -0.82520
C593        C  0.43637096  0.06270223  0.59158382     1.12630
O594        O  0.42565587  0.43847493  0.94545185    -0.95600
Zr595      Zr  0.44911531  0.45625231  0.99713340     1.88940
O596        O  0.45244393  0.45744996  0.59036105    -0.72250
O597        O  0.38814092  0.05216801  0.51309029    -0.51510
O598        O  0.38941021  0.47252237  0.99532700    -0.96190
O599        O  0.45648127  0.39494442  0.98860140    -0.53410
O600        O  0.42933333  0.43057554  0.54813238    -0.72770
C601        C  0.43273919  0.43618450  0.57914685     0.99570
O602        O  0.01582831  0.01525258  0.61898494    -0.61590
O603        O  0.10999204  0.45152145  0.50226575    -0.56390
O604        O  0.02830175  0.45209502  0.59482310    -0.93080
O605        O  0.06583035  0.43061299  0.55578690    -0.91500
O606        O  0.10640661  0.03656013  0.50633007    -0.91860
O607        O  0.07171600  0.07308455  0.55355316    -0.90640
C608        C  0.05420921  0.43327053  0.58595967     1.18420
H609        H  0.07414744  0.00374449  0.95466008     0.34360
H610        H  0.49613946  0.06751521  0.55555953     0.45210
H611        H  0.49807381  0.42582993  0.54307328     0.38740
H612        H  0.43286935  0.00786263  0.94857682     0.35220
H613        H  0.05960023  0.12132811  0.50297154     0.27010
H614        H  0.37969185  0.07582077  0.50765735     0.32940
H615        H  0.38051861  0.44300446  0.50297041     0.38850
H616        H  0.11694471  0.05754370  0.49807722     0.33310
H617        H  0.11819174  0.42731506  0.50069762     0.32190
H618        H  0.06741624  0.37804141  0.00095124     0.33870
H619        H  0.43523977  0.38558545  0.99710149     0.32840
H620        H  0.06158674  0.06063923  0.57283985     0.36840
H621        H  0.04039661  0.01196290  0.61508411     0.29570
H622        H  0.50312958  0.52454564  0.86918164     0.33800
H623        H  0.40696445  0.42402332  0.95226663     0.36650
H624        H  0.11667709  0.45461438  0.98205973     0.29270
H625        H  0.01176562  0.04036699  0.61791320     0.42140
H626        H  0.46561497  0.12118675  0.99809658     0.32190
H627        H  0.02539740  0.11927859  0.98978390     0.39810
H628        H  0.47616904  0.38247905  0.50979668     0.31660
H629        H  0.38534814  0.04320366  0.97529116     0.31720
H630        H  0.47429073  0.50134208  0.88189469     0.31990
C631        C  0.37198249  0.37068148  0.61805651    -0.01520
C632        C  0.37666827  0.11833374  0.86038002    -0.01520
C633        C  0.12468492  0.37442580  0.87249554    -0.01520
C634        C  0.12956175  0.13031412  0.87948410    -0.01520
C635        C  0.37677558  0.13074103  0.63560570    -0.01520
C636        C  0.12442040  0.37777341  0.63043923    -0.01520
C637        C  0.07146607  0.41241249  0.61208065    -0.15470
C638        C  0.10439731  0.40344091  0.60845150    -0.30640
H639        H  0.05694359  0.40407409  0.63387513     0.13550
H640        H  0.11835076  0.41584405  0.58816369     0.14130
C641        C  0.41905086  0.08319977  0.61808670    -0.15470
C642        C  0.39943360  0.11125648  0.61039021    -0.30640
H643        H  0.42098570  0.07443307  0.64393994     0.13550
H644        H  0.39807283  0.11939610  0.58426106     0.14130
C645        C  0.10538774  0.11175332  0.90325138    -0.15470
C646        C  0.08475835  0.08814333  0.89382775    -0.30640
H647        H  0.10511249  0.11702171  0.92971129     0.13550
H648        H  0.08363704  0.08195089  0.86767702     0.14130
C649        C  0.09811287  0.39353000  0.89515830    -0.15470
C650        C  0.08425115  0.42557070  0.89018703    -0.30640
H651        H  0.09009166  0.37970041  0.91768075     0.13550
H652        H  0.08838242  0.43927923  0.86667012     0.14130
C653        C  0.39933966  0.09098931  0.87776117    -0.15470
C654        C  0.42331404  0.09988481  0.89799952    -0.30640
H655        H  0.39618155  0.06404595  0.87409694     0.13550
H656        H  0.42536418  0.12674539  0.90297760     0.14130
C657        C  0.39222978  0.39292812  0.59373388    -0.15470
C658        C  0.41279796  0.41646698  0.60363036    -0.30640
H659        H  0.39028476  0.38972965  0.56705559     0.13550
H660        H  0.41537053  0.42068528  0.63006700     0.14130
C661        C  0.16716529  0.32931325  0.61431283    -0.15470
C662        C  0.14661334  0.35644252  0.60607674    -0.30640
H663        H  0.16975198  0.32144948  0.64033635     0.13550
H664        H  0.14500199  0.36320875  0.57963584     0.14130
C665        C  0.14935476  0.35621093  0.89643597    -0.15470
C666        C  0.17345069  0.33209102  0.88808202    -0.30640
H667        H  0.14617796  0.36216421  0.92273297     0.13550
H668        H  0.17750947  0.32496903  0.86226778     0.14130
C669        C  0.33145014  0.16228504  0.88943349    -0.15470
C670        C  0.35594405  0.13795734  0.88778876    -0.30640
H671        H  0.34588427  0.14287100  0.90906137     0.13550
H672        H  0.34176857  0.15627516  0.86694726     0.14130
C673        C  0.35729594  0.15845357  0.61543864    -0.15470
C674        C  0.32379004  0.16233173  0.61378120    -0.30640
H675        H  0.37212115  0.17500692  0.59929657     0.13550
H676        H  0.30721299  0.14826711  0.63024630     0.14130
C677        C  0.35245582  0.34752690  0.59680762    -0.15470
C678        C  0.32802575  0.32717503  0.60752271    -0.30640
H679        H  0.35853272  0.34776448  0.57019603     0.13550
H680        H  0.32019796  0.32520083  0.63350208     0.14130
C681        C  0.17535036  0.17143863  0.89147030    -0.15470
C682        C  0.14995287  0.15208517  0.90143654    -0.30640
H683        H  0.18247232  0.17469255  0.86536040     0.13550
H684        H  0.14389760  0.15138491  0.92803911     0.14130
C685        C  0.10722013  0.34832120  0.85278306    -0.15470
C686        C  0.08063028  0.35696109  0.83404500    -0.30640
H687        H  0.11550087  0.32150171  0.85504994     0.13550
H688        H  0.07051772  0.38323902  0.83324769     0.14130
C689        C  0.10130516  0.35428283  0.65017634    -0.15470
C690        C  0.10666296  0.34187922  0.68151148    -0.30640
H691        H  0.07970357  0.34616448  0.63735922     0.13550
H692        H  0.12954046  0.34687084  0.69390128     0.14130
C693        C  0.39989708  0.14124609  0.84027258    -0.15470
C694        C  0.39005321  0.16753830  0.82007617    -0.30640
H695        H  0.42674600  0.13530138  0.84181372     0.13550
H696        H  0.36367031  0.17340059  0.81561065     0.14130
C697        C  0.10794703  0.18459535  0.84768198    -0.15470
C698        C  0.10828691  0.15063934  0.85400998    -0.30640
H699        H  0.12539993  0.20052565  0.85894142     0.13550
H700        H  0.09138727  0.13605305  0.84013246     0.14130
C701        C  0.39015196  0.32465057  0.66097328    -0.15470
C702        C  0.39730725  0.35013792  0.63927624    -0.30640
H703        H  0.36495101  0.31639061  0.66449214     0.13550
H704        H  0.42347067  0.35615835  0.63607712     0.14130
C705        C  0.42133114  0.16906256  0.65207924    -0.15470
C706        C  0.39737907  0.14771013  0.66107426    -0.30640
H707        H  0.42862164  0.17247322  0.62589989     0.13550
H708        H  0.39233861  0.14292837  0.68756931     0.14130
C709        C  0.14393595  0.39879231  0.84947570    -0.15470
C710        C  0.16489492  0.38918395  0.82365917    -0.30640
H711        H  0.14229283  0.42551211  0.85577366     0.13550
H712        H  0.16757838  0.36264196  0.81672336     0.14130
C713        C  0.35423238  0.10514790  0.65308903    -0.15470
C714        C  0.33373244  0.11225967  0.67964507    -0.30640
H715        H  0.35572273  0.07922702  0.64406897     0.13550
H716        H  0.33157198  0.13792792  0.68920565     0.14130
C717        C  0.35378152  0.10138332  0.83708695    -0.15470
C718        C  0.33327306  0.07726252  0.84793348    -0.30640
H719        H  0.35474938  0.10830168  0.81060726     0.13550
H720        H  0.33341154  0.06847456  0.87388197     0.14130
C721        C  0.17407962  0.11070215  0.83652290    -0.15470
C722        C  0.15249294  0.10350233  0.86196236    -0.30640
H723        H  0.17628291  0.13679512  0.82758939     0.13550
H724        H  0.15055332  0.07691249  0.86981257     0.14130
C725        C  0.32954527  0.38642679  0.66530931    -0.15470
C726        C  0.34878974  0.39500270  0.63845559    -0.30640
H727        H  0.32848714  0.36028993  0.67420171     0.13550
H728        H  0.34834248  0.42186330  0.63087601     0.14130
C729        C  0.14302069  0.39964040  0.65365141    -0.15470
C730        C  0.17618463  0.39771354  0.65829493    -0.30640
H731        H  0.12761645  0.41829380  0.66782100     0.13550
H732        H  0.19259852  0.37816259  0.64686830     0.14130
Zr733      Zr  0.25956075  0.56212577  0.26023995     2.17510
O734        O  0.24733451  0.62172592  0.24354074    -0.50370
O735        O  0.29952434  0.58077401  0.30093483    -0.73570
O736        O  0.21730412  0.59117114  0.29634495    -0.80360
O737        O  0.31942701  0.54954609  0.18489129    -0.82100
O738        O  0.18688954  0.55098030  0.32307849    -0.77730
O739        O  0.28832323  0.59027030  0.21327724    -0.89360
O740        O  0.31458371  0.53462794  0.33372329    -0.75320
O741        O  0.25592864  0.52397856  0.30725011    -0.84820
O742        O  0.30767215  0.52357452  0.25619533    -0.84500
O743        O  0.20739197  0.53477025  0.25471488    -0.71260
O744        O  0.25409579  0.53318274  0.20867258    -0.83400
Zr745      Zr  0.24071286  0.93424603  0.23857045     2.26420
Zr746      Zr  0.20500833  0.49598208  0.30183556     2.06270
Zr747      Zr  0.29662050  0.00091538  0.19819703     2.10050
Zr748      Zr  0.29671315  0.99265526  0.29577269     1.78760
O749        O  0.30038962  0.49865091  0.14459554    -0.92200
O750        O  0.28769141  0.98796183  0.35609262    -0.40010
O751        O  0.29256206  0.96208506  0.24495175    -0.76640
O752        O  0.24638798  0.96216341  0.29083828    -0.95330
O753        O  0.19319280  0.97343026  0.24232374    -0.88630
O754        O  0.24568364  0.97356078  0.19238670    -0.91470
C755        C  0.31363450  0.56659970  0.32673615     1.02280
C756        C  0.30958215  0.58061859  0.19021658     1.15210
C757        C  0.19419230  0.58193739  0.31709586     1.05990
O758        O  0.19937512  0.99189938  0.35423985    -0.93630
O759        O  0.17705707  0.94696299  0.31118323    -0.89370
O760        O  0.19991865  0.90652163  0.27654921    -0.82520
C761        C  0.18063624  0.91615489  0.30140234     1.12630
O762        O  0.17758970  0.55571939  0.18059554    -0.95600
Zr763      Zr  0.20359294  0.50321921  0.20453827     1.88940
O764        O  0.20397714  0.91622324  0.19452138    -0.72250
O765        O  0.14403441  0.50258940  0.30010921    -0.51510
O766        O  0.14362741  0.50702415  0.21828242    -0.96190
O767        O  0.21096120  0.50906332  0.14402815    -0.53410
O768        O  0.18399334  0.96373646  0.16597521    -0.72770
C769        C  0.18764595  0.93141539  0.17049784     0.99570
O770        O  0.26130439  0.87866928  0.26117183    -0.61590
O771        O  0.35751964  0.99228839  0.19832471    -0.56390
O772        O  0.28260862  0.90457881  0.20241382    -0.93080
O773        O  0.31502728  0.94485684  0.17827716    -0.91500
O774        O  0.35692839  0.98642526  0.28400857    -0.91860
O775        O  0.32261042  0.94038500  0.31998989    -0.90640
C776        C  0.30689703  0.91383400  0.18301968     1.18420
H777        H  0.32808679  0.53561219  0.25601266     0.34360
H778        H  0.24532193  0.94553467  0.30902962     0.45210
H779        H  0.24695494  0.96208118  0.17137132     0.38740
H780        H  0.18869144  0.55148336  0.25561674     0.35220
H781        H  0.31006635  0.99056726  0.36527861     0.27010
H782        H  0.13637945  0.50627439  0.32354814     0.32940
H783        H  0.13312179  0.49663827  0.19931952     0.38850
H784        H  0.36717224  0.99564279  0.30373997     0.33310
H785        H  0.36524787  0.99938919  0.17557984     0.32190
H786        H  0.32396937  0.49450215  0.13664871     0.33910
H787        H  0.19077513  0.49962257  0.13502987     0.32840
H788        H  0.31282548  0.92184341  0.30800006     0.36840
H789        H  0.28607790  0.87874077  0.25939040     0.29570
H790        H  0.25097730  0.63522897  0.26344346     0.33800
H791        H  0.15877059  0.54865566  0.16743594     0.36650
H792        H  0.37016471  0.51062181  0.21459746     0.29270
H793        H  0.25653125  0.87937502  0.28554687     0.42140
H794        H  0.21768462  0.50854371  0.36987651     0.32190
H795        H  0.27876290  0.48444364  0.37048655     0.39810
H796        H  0.22343633  0.01092560  0.12882511     0.31660
H797        H  0.13914785  0.52482162  0.28847732     0.31720
H798        H  0.22285893  0.62404957  0.24016401     0.31990
Zr799      Zr  0.43819492  0.74405980  0.24059486     2.17510
O800        O  0.38212448  0.76258172  0.26134086    -0.50370
O801        O  0.42030869  0.69984528  0.20392302    -0.73570
O802        O  0.40842501  0.78245345  0.20145434    -0.80360
O803        O  0.45016835  0.68403557  0.31562445    -0.82100
O804        O  0.44703710  0.81564842  0.17620464    -0.77730
O805        O  0.41014998  0.70912410  0.28256870    -0.89360
O806        O  0.46694733  0.66909369  0.18533714    -0.75320
O807        O  0.47560074  0.74644913  0.19322135    -0.84820
O808        O  0.47717227  0.69630063  0.24618662    -0.84500
O809        O  0.46416620  0.79766580  0.24473678    -0.71260
O810        O  0.46552312  0.75164450  0.29234722    -0.83400
Zr811      Zr  0.06633792  0.75158412  0.25142746     2.26420
Zr812      Zr  0.50195920  0.79915414  0.19720735     2.06270
Zr813      Zr  0.00107257  0.70119494  0.29881673     2.10050
Zr814      Zr  0.00421909  0.69645643  0.20066498     1.78760
O815        O  0.49992069  0.70863271  0.35737976    -0.92200
O816        O  0.00613709  0.70351274  0.14006715    -0.40010
O817        O  0.03668350  0.70011463  0.24972810    -0.76640
O818        O  0.03572927  0.74667029  0.20125386    -0.95330
O819        O  0.03033736  0.80191810  0.24831855    -0.88630
O820        O  0.03106240  0.75168662  0.30048534    -0.91470
C821        C  0.43522168  0.67464604  0.18844211     1.02280
C822        C  0.41963471  0.68939041  0.30691954     1.15210
C823        C  0.41689621  0.80650877  0.18112572     1.05990
O824        O  0.00439985  0.79690878  0.13875636    -0.93630
O825        O  0.05253878  0.81597997  0.18004891    -0.89370
O826        O  0.09331788  0.78983986  0.21151420    -0.82520
C827        C  0.08318223  0.81038279  0.18800916     1.12630
O828        O  0.44209772  0.82995310  0.31753533    -0.95600
Zr829      Zr  0.49449473  0.80350789  0.29497079     1.88940
O830        O  0.09032449  0.79076744  0.28889930    -0.72250
O831        O  0.49432006  0.86121226  0.19693102    -0.51510
O832        O  0.49090354  0.86432024  0.28067142    -0.96190
O833        O  0.48797574  0.79719970  0.35552197    -0.53410
O834        O  0.04767619  0.82131684  0.31525838    -0.72770
C835        C  0.07894593  0.81359613  0.30933589     0.99570
O836        O  0.11817709  0.72606564  0.22645650    -0.61590
O837        O  0.00685339  0.63904859  0.30085558    -0.56390
O838        O  0.09608009  0.71171843  0.28918958    -0.93080
O839        O  0.05618273  0.68232291  0.31738771    -0.91500
O840        O  0.00937353  0.63518961  0.21219497    -0.91860
O841        O  0.05484069  0.66970292  0.17489125    -0.90640
C842        C  0.08677528  0.68920472  0.31087003     1.18420
H843        H  0.46612632  0.67506169  0.24765513     0.34360
H844        H  0.05102452  0.74659152  0.18206151     0.45210
H845        H  0.04405870  0.75144626  0.32037074     0.38740
H846        H  0.44733747  0.81628534  0.24328432     0.35220
H847        H  0.00258774  0.68053178  0.13176968     0.27010
H848        H  0.48987368  0.86795282  0.17343177     0.32940
H849        H  0.50007074  0.87536193  0.30000304     0.38850
H850        H  0.00237575  0.62485403  0.19149358     0.33310
H851        H  0.00117076  0.63252743  0.32432407     0.32190
H852        H  0.50425591  0.68508218  0.36634200     0.33870
H853        H  0.49583959  0.81857430  0.36423964     0.32840
H854        H  0.07344368  0.67857601  0.18714052     0.36840
H855        H  0.11679503  0.70112764  0.23007426     0.29570
H856        H  0.36658822  0.75682015  0.24389942     0.33800
H857        H  0.44851897  0.84924882  0.33085227     0.36650
H858        H  0.49145202  0.63340685  0.28810527     0.29270
H859        H  0.11594923  0.72939859  0.20204105     0.42140
H860        H  0.49078080  0.78249061  0.12986161     0.32190
H861        H  0.49012676  0.71501905  0.13428398     0.39810
H862        H  0.00853472  0.77830217  0.36374739     0.31660
H863        H  0.47272652  0.86618721  0.20916529     0.31720
H864        H  0.38158443  0.78783698  0.26103598     0.31990
Zr865      Zr  0.25200918  0.75262954  0.06334400     2.17510
O866        O  0.22330015  0.72919558  0.11275107    -0.50370
O867        O  0.28584863  0.79373476  0.08836276    -0.73570
O868        O  0.29013860  0.71441396  0.09408201    -0.80360
O869        O  0.18482221  0.82074104  0.05176196    -0.82100
O870        O  0.31697502  0.67977181  0.05605221    -0.77730
O871        O  0.21651856  0.79425323  0.09205284    -0.89360
O872        O  0.31632184  0.81851311  0.04628106    -0.75320
O873        O  0.30232479  0.74870359  0.02990406    -0.84820
O874        O  0.25040934  0.80162766  0.02697041    -0.84500
O875        O  0.24931931  0.70019923  0.03453289    -0.71260
O876        O  0.20131860  0.74977437  0.03305316    -0.83400
Zr877      Zr  0.24475657  0.74838256  0.43179566     2.26420
Zr878      Zr  0.29941481  0.69738989  0.00016369     2.06270
Zr879      Zr  0.20082697  0.79871194  0.99645300     2.10050
Zr880      Zr  0.29760187  0.79864353  0.49544712     1.78760
O881        O  0.14010663  0.79606100  0.00129827    -0.92200
O882        O  0.35836165  0.78865523  0.49227161    -0.40010
O883        O  0.24803297  0.79902553  0.46337803    -0.76640
O884        O  0.29581158  0.74921190  0.46203313    -0.95330
O885        O  0.24737170  0.69775427  0.46610468    -0.88630
O886        O  0.19570080  0.75089357  0.46733246    -0.91470
C887        C  0.30729372  0.81461431  0.07716110     1.02280
C888        C  0.19393622  0.81622467  0.08222909     1.15210
C889        C  0.31078902  0.68961102  0.08609261     1.05990
O890        O  0.35801364  0.70013035  0.49092137    -0.93630
O891        O  0.31322839  0.67872947  0.44178674    -0.89370
O892        O  0.27877398  0.70403968  0.40306660    -0.82520
C893        C  0.30293852  0.68303645  0.41181324     1.12630
O894        O  0.17537519  0.67358569  0.05206520    -0.95600
Zr895      Zr  0.20042760  0.69875038  0.00146792     1.88940
O896        O  0.20174581  0.71719144  0.40646718    -0.72250
O897        O  0.29783426  0.63549891  0.00420584    -0.51510
O898        O  0.21262106  0.63721920  0.00269956    -0.96190
O899        O  0.13949058  0.70790023  0.00481922    -0.53410
O900        O  0.17915669  0.68391016  0.44780681    -0.72770
C901        C  0.18220434  0.69421884  0.41726711     0.99570
O902        O  0.27374491  0.76993994  0.38157737    -0.61590
O903        O  0.19780455  0.86279898  0.49672741    -0.56390
O904        O  0.21211902  0.79487645  0.40415220    -0.93080
O905        O  0.18058216  0.82225724  0.44468422    -0.91500
O906        O  0.28748249  0.86041130  0.49507578    -0.91860
O907        O  0.32392602  0.82646074  0.44708051    -0.90640
C908        C  0.18971133  0.81751325  0.41400111     1.18420
H909        H  0.24962717  0.82259832  0.03903649     0.34360
H910        H  0.31490813  0.74839014  0.44657262     0.45210
H911        H  0.17546321  0.75282520  0.45475487     0.38740
H912        H  0.24948420  0.68122159  0.05042154     0.35220
H913        H  0.36718620  0.81059618  0.49841453     0.27010
H914        H  0.32104368  0.62733850  0.00938802     0.32940
H915        H  0.19257385  0.62760761  0.99359988     0.38850
H916        H  0.30804110  0.86906359  0.50408263     0.33310
H917        H  0.17473740  0.87025778  0.50422968     0.32190
H918        H  0.13135482  0.82008928  0.99884925     0.33870
H919        H  0.13085943  0.68662979  0.99665608     0.32840
H920        H  0.31462784  0.81573627  0.42764306     0.36840
H921        H  0.27300873  0.79502773  0.38374599     0.29570
H922        H  0.23736684  0.73406071  0.13171430     0.33800
H923        H  0.16170330  0.65518855  0.04456814     0.36650
H924        H  0.21315269  0.86837901  0.00775277     0.29270
H925        H  0.29770679  0.76285348  0.38430757     0.42140
H926        H  0.36643094  0.70878490  0.01756546     0.32190
H927        H  0.36538171  0.77413826  0.01355563     0.39810
H928        H  0.13137687  0.72599646  0.48901393     0.31660
H929        H  0.28449795  0.63076354  0.02491049     0.31720
H930        H  0.22578576  0.70411420  0.11055464     0.31990
Zr931      Zr  0.00569239  0.50604951  0.43285117     2.17510
O932        O  0.48770313  0.99216577  0.38204287    -0.50370
O933        O  0.04362579  0.54684756  0.40813492    -0.73570
O934        O  0.46327839  0.54342774  0.40280311    -0.80360
O935        O  0.06567989  0.93309338  0.44588318    -0.82100
O936        O  0.42905193  0.56892906  0.44228381    -0.77730
O937        O  0.03865094  0.96646159  0.40668039    -0.89360
O938        O  0.06875330  0.57237351  0.44998943    -0.75320
O939        O  0.00043162  0.55472794  0.46713293    -0.84820
O940        O  0.05281575  0.50221555  0.46806671    -0.84500
O941        O  0.45333981  0.50238488  0.46183019    -0.71260
O942        O  0.99869890  0.95598667  0.46583538    -0.83400
Zr943      Zr  0.49253562  0.99273560  0.06481388     2.26420
Zr944      Zr  0.45360317  0.55462727  0.00841180     2.06270
Zr945      Zr  0.05027326  0.95171600  0.99988396     2.10050
Zr946      Zr  0.05309053  0.54686758  0.01531403     1.78760
O947        O  0.04486481  0.88937499  0.50052089    -0.92200
O948        O  0.04812716  0.60904442  0.01481081    -0.40010
O949        O  0.04696749  0.99882570  0.03612999    -0.76640
O950        O  0.49852243  0.54643381  0.04609604    -0.95330
O951        O  0.44468337  0.99854370  0.03110035    -0.88630
O952        O  0.49593383  0.94587245  0.02818381    -0.91470
C953        C  0.06404602  0.56764930  0.41905785     1.02280
C954        C  0.05961864  0.94188484  0.41545903     1.15210
C955        C  0.43786095  0.56304225  0.41174474     1.05990
O956        O  0.45214045  0.61606172  0.01530376    -0.93630
O957        O  0.43104168  0.57035776  0.06264188    -0.89370
O958        O  0.44824163  0.52947997  0.10064978    -0.82520
C959        C  0.43123010  0.55703459  0.09219524     1.12630
O960        O  0.42828982  0.92999140  0.44980984    -0.95600
Zr961      Zr  0.44952687  0.95311942  0.50029100     1.88940
O962        O  0.45116153  0.95564095  0.08912939    -0.72250
O963        O  0.39303696  0.55227709  0.00477119    -0.51510
O964        O  0.38910797  0.96524641  0.49812719    -0.96190
O965        O  0.45781370  0.89115231  0.49777530    -0.53410
O966        O  0.42655117  0.93034215  0.04671935    -0.72770
C967        C  0.43060349  0.93526604  0.07776961     0.99570
O968        O  0.01453548  0.50709942  0.12396810    -0.61590
O969        O  0.11138567  0.95041637  0.99858975    -0.56390
O970        O  0.03521064  0.95520625  0.09545142    -0.93080
O971        O  0.07131858  0.93467968  0.05478739    -0.91500
O972        O  0.11092068  0.52961889  0.02793023    -0.91860
O973        O  0.06994219  0.57004972  0.06745687    -0.90640
C974        C  0.06174008  0.93800864  0.08560514     1.18420
H975        H  0.07364593  0.50206254  0.45509916     0.34360
H976        H  0.49706091  0.56394622  0.06259390     0.45210
H977        H  0.49600437  0.92440110  0.04056776     0.38740
H978        H  0.43502544  0.50293901  0.44669281     0.35220
H979        H  0.07153540  0.61611706  0.01368990     0.27010
H980        H  0.38434918  0.57638357  0.00564445     0.32940
H981        H  0.37775933  0.94618824  0.00228703     0.38850
H982        H  0.12363044  0.55012990  0.02271973     0.33310
H983        H  0.11868522  0.92645993  0.99386683     0.32190
H984        H  0.06863790  0.88097988  0.50196102     0.33870
H985        H  0.43641731  0.88230893  0.50650063     0.32840
H986        H  0.06491506  0.55226549  0.08461520     0.36840
H987        H  0.03904609  0.50188918  0.12177434     0.29570
H988        H  0.48928909  0.01231567  0.36674991     0.33800
H989        H  0.40960457  0.91580988  0.45728228     0.36650
H990        H  0.11402611  0.96252541  0.48015195     0.29270
H991        H  0.01247173  0.53235164  0.12388504     0.42140
H992        H  0.45968188  0.61903602  0.47473089     0.32190
H993        H  0.02292595  0.61840521  0.48705568     0.39810
H994        H  0.47316430  0.88317752  0.00569279     0.31660
H995        H  0.38230836  0.53671912  0.47997469     0.31720
H996        H  0.46348722  0.98805388  0.38399106     0.31990
C997        C  0.37105437  0.87003327  0.11897256    -0.01520
C998        C  0.37391740  0.62701219  0.36742576    -0.01520
C999        C  0.12031524  0.87458803  0.36923013    -0.01520
C1000       C  0.12890628  0.62740707  0.37730466    -0.01520
C1001       C  0.37417020  0.62895604  0.13457045    -0.01520
C1002       C  0.12632494  0.87417395  0.12776775    -0.01520
C1003       C  0.08190326  0.92018458  0.11183790    -0.15470
C1004       C  0.10974693  0.90079828  0.10409892    -0.30640
H1005       H  0.07218703  0.92058995  0.13747566     0.13550
H1006       H  0.11882441  0.90134675  0.07817118     0.14130
C1007       C  0.40944845  0.57443982  0.11771958    -0.15470
C1008       C  0.40120099  0.60826992  0.11448410    -0.30640
H1009       H  0.39919240  0.55885403  0.13786690     0.13550
H1010       H  0.41400679  0.62258731  0.09470614     0.14130
C1011       C  0.10747546  0.60799945  0.40291640    -0.15470
C1012       C  0.08372926  0.58715512  0.39411961    -0.30640
H1013       H  0.11165861  0.61092477  0.42933624     0.13550
H1014       H  0.07923229  0.58389499  0.36785262     0.14130
C1015       C  0.10066564  0.89619579  0.39558746    -0.15470
C1016       C  0.07811177  0.92231909  0.38860557    -0.30640
H1017       H  0.10511886  0.89000246  0.42176197     0.13550
H1018       H  0.07315842  0.92929527  0.36274886     0.14130
C1019       C  0.39069898  0.60141627  0.39221665    -0.15470
C1020       C  0.41783350  0.58049993  0.38495777    -0.30640
H1021       H  0.38214214  0.60261140  0.41825154     0.13550
H1022       H  0.42698325  0.57838916  0.35923201     0.14130
C1023       C  0.39033441  0.89164986  0.09343014    -0.15470
C1024       C  0.41050568  0.91597305  0.10240611    -0.30640
H1025       H  0.38823014  0.88686429  0.06699980     0.13550
H1026       H  0.41298747  0.92102774  0.12869289     0.14130
C1027       C  0.17782575  0.83813368  0.10791612    -0.15470
C1028       C  0.14588234  0.84940663  0.10505695    -0.30640
H1029       H  0.19194501  0.84406473  0.12943946     0.13550
H1030       H  0.13201441  0.83986318  0.08467482     0.14130
C1031       C  0.14025032  0.84696422  0.38936957    -0.15470
C1032       C  0.17371895  0.84041106  0.38842810    -0.30640
H1033       H  0.12558404  0.83215323  0.40733261     0.13550
H1034       H  0.18974161  0.85240875  0.36977797     0.14130
C1035       C  0.32028950  0.66202892  0.38575714    -0.15470
C1036       C  0.35290000  0.65227669  0.38879343    -0.30640
H1037       H  0.30642658  0.65474522  0.36454579     0.13550
H1038       H  0.36614993  0.66306344  0.40893501     0.14130
C1039       C  0.35063124  0.64491498  0.10834878    -0.15470
C1040       C  0.32891358  0.67181704  0.11365327    -0.30640
H1041       H  0.35349502  0.63560283  0.08303227     0.13550
H1042       H  0.32543767  0.68188661  0.13856494     0.14130
C1043       C  0.35399300  0.84390117  0.09889805    -0.15470
C1044       C  0.32151691  0.83682553  0.10131065    -0.30640
H1045       H  0.36991841  0.82995507  0.08072848     0.13550
H1046       H  0.30474362  0.84761861  0.12046869     0.14130
C1047       C  0.16084229  0.67898692  0.39329732    -0.15470
C1048       C  0.15370130  0.64602552  0.39713733    -0.30640
H1049       H  0.15081365  0.69516266  0.37329652     0.13550
H1050       H  0.16703440  0.63065657  0.41605651     0.14130
C1051       C  0.09522494  0.85745722  0.34822550    -0.15470
C1052       C  0.10390176  0.83159749  0.32761852    -0.30640
H1053       H  0.06879381  0.86535260  0.35131058     0.13550
H1054       H  0.12992022  0.82226443  0.32514107     0.14130
C1055       C  0.10011647  0.85366071  0.14615504    -0.15470
C1056       C  0.10862540  0.82899896  0.16889892    -0.30640
H1057       H  0.07379142  0.85922304  0.14109090     0.13550
H1058       H  0.13487543  0.82322913  0.17420921     0.14130
C1059       C  0.40074031  0.64707431  0.34916783    -0.15470
C1060       C  0.39334191  0.67141657  0.32581345    -0.30640
H1061       H  0.42688272  0.64137458  0.35496140     0.13550
H1062       H  0.36732723  0.67733685  0.31966247     0.14130
C1063       C  0.11302846  0.66960689  0.32960463    -0.15470
C1064       C  0.10484732  0.65070555  0.35693443    -0.30640
H1065       H  0.13888211  0.67094064  0.32092799     0.13550
H1066       H  0.07851620  0.65130086  0.36490007     0.14130
C1067       C  0.39002570  0.82496387  0.16214710    -0.15470
C1068       C  0.39670646  0.85136191  0.14125567    -0.30640
H1069       H  0.36479709  0.81615599  0.16460904     0.13550
H1070       H  0.42255715  0.85854890  0.13868833     0.14130
C1071       C  0.41543399  0.64883047  0.17401242    -0.15470
C1072       C  0.39126116  0.65669369  0.15229824    -0.30640
H1073       H  0.42376158  0.62225773  0.17821442     0.13550
H1074       H  0.38492108  0.68346850  0.14651330     0.14130
C1075       C  0.14193227  0.89857284  0.34776161    -0.15470
C1076       C  0.16134090  0.89016130  0.32045006    -0.30640
H1077       H  0.14090863  0.92506320  0.35509332     0.13550
H1078       H  0.16372152  0.86410567  0.31225068     0.14130
C1079       C  0.35648515  0.60666828  0.16085985    -0.15470
C1080       C  0.32325629  0.60675429  0.16741340    -0.30640
H1081       H  0.37239798  0.59009231  0.17661182     0.13550
H1082       H  0.30578232  0.62504438  0.15562172     0.14130
C1083       C  0.35391666  0.60874816  0.34196052    -0.15470
C1084       C  0.32975091  0.58759900  0.35097251    -0.30640
H1085       H  0.36031414  0.61189210  0.31550520     0.13550
H1086       H  0.32470485  0.58233249  0.37736259     0.14130
C1087       C  0.17465879  0.60881457  0.33540183    -0.15470
C1088       C  0.14836873  0.60137995  0.35572861    -0.30640
H1089       H  0.18273409  0.63470223  0.33309432     0.13550
H1090       H  0.14182823  0.57491369  0.35831350     0.14130
C1091       C  0.32723557  0.88684189  0.16510932    -0.15470
C1092       C  0.34715475  0.89477823  0.13853742    -0.30640
H1093       H  0.32558894  0.86055455  0.17370205     0.13550
H1094       H  0.34677842  0.92151233  0.13051196     0.14130
C1095       C  0.14700422  0.89108402  0.15357621    -0.15470
C1096       C  0.17206985  0.91125762  0.14532869    -0.30640
H1097       H  0.14026589  0.88783787  0.17996128     0.13550
H1098       H  0.17778573  0.91688660  0.11913242     0.14130
Zr1099     Zr  0.25405584  0.56642337  0.75283050     2.17510
O1100       O  0.23351010  0.62090779  0.72839790    -0.50370
O1101       O  0.28851098  0.58878946  0.79439657    -0.73570
O1102       O  0.21371406  0.59518397  0.79086492    -0.80360
O1103       O  0.31869193  0.55506846  0.68264183    -0.82100
O1104       O  0.18677393  0.55382690  0.81994306    -0.77730
O1105       O  0.29367664  0.59564828  0.71592304    -0.89360
O1106       O  0.31984593  0.54477647  0.81785557    -0.75320
O1107       O  0.25283020  0.52898607  0.80059309    -0.84820
O1108       O  0.30311860  0.52912302  0.74908775    -0.84500
O1109       O  0.20281423  0.53774077  0.74937467    -0.71260
O1110       O  0.24962142  0.53754669  0.70131073    -0.83400
Zr1111     Zr  0.23714682  0.93392574  0.73483463     2.26420
Zr1112     Zr  0.20279039  0.49932527  0.79677721     2.06270
Zr1113     Zr  0.29684461  0.99987306  0.69914165     2.10050
Zr1114     Zr  0.29720047  0.98057295  0.79523649     1.78760
O1115       O  0.29514894  0.50590958  0.63820876    -0.92200
O1116       O  0.28930034  0.96088874  0.85299166    -0.40010
O1117       O  0.29119695  0.95653157  0.74173039    -0.76640
O1118       O  0.24428783  0.95647866  0.78913694    -0.95330
O1119       O  0.19205443  0.97563516  0.74243850    -0.88630
O1120       O  0.24410248  0.97641853  0.69178378    -0.91470
C1121       C  0.31104480  0.57671217  0.81407228     1.02280
C1122       C  0.31422524  0.58602199  0.69221111     1.15210
C1123       C  0.19268924  0.58504449  0.81340287     1.05990
O1124       O  0.19939610  0.98925001  0.85610947    -0.93630
O1125       O  0.17773414  0.94466835  0.81061786    -0.89370
O1126       O  0.19808668  0.90510815  0.77368965    -0.82520
C1127       C  0.18028466  0.91423426  0.79972100     1.12630
O1128       O  0.17198673  0.55966388  0.67823864    -0.95600
Zr1129     Zr  0.19958910  0.50661778  0.69919369     1.88940
O1130       O  0.19640146  0.92130576  0.69348203    -0.72250
O1131       O  0.14182057  0.50639622  0.79567333    -0.51510
O1132       O  0.13951597  0.50722504  0.71206419    -0.96190
O1133       O  0.20641450  0.51436744  0.63882189    -0.53410
O1134       O  0.18190373  0.97119390  0.66588541    -0.72770
C1135       C  0.18199494  0.93869093  0.66974736     0.99570
O1136       O  0.25772363  0.87595324  0.75017533    -0.61590
O1137       O  0.35760186  0.98982160  0.70012018    -0.56390
O1138       O  0.27310266  0.90732887  0.69113108    -0.93080
O1139       O  0.31143230  0.94554985  0.67421432    -0.91500
O1140       O  0.35758095  0.97909911  0.78402580    -0.91860
O1141       O  0.32418197  0.92470015  0.80789042    -0.90640
C1142       C  0.29903878  0.91615093  0.67381172     1.18420
H1143       H  0.32331544  0.54151675  0.74878105     0.34360
H1144       H  0.24249988  0.93862985  0.80607917     0.45210
H1145       H  0.24422540  0.96686290  0.66985891     0.38740
H1146       H  0.18380048  0.55404475  0.75079122     0.35220
H1147       H  0.31086313  0.96441892  0.86348862     0.27010
H1148       H  0.13444052  0.50904187  0.81933398     0.32940
H1149       H  0.12962938  0.49858266  0.69186728     0.38850
H1150       H  0.36731688  0.98279805  0.80591987     0.33310
H1151       H  0.36533192  0.99214211  0.67647587     0.32190
H1152       H  0.31870147  0.50314097  0.62976933     0.33910
H1153       H  0.18587248  0.50579366  0.62970702     0.32840
H1154       H  0.30862278  0.90829699  0.79976303     0.36840
H1155       H  0.28231499  0.87553688  0.74601411     0.29570
H1156       H  0.23750958  0.63808364  0.74520366     0.33800
H1157       H  0.15392813  0.55283821  0.66395118     0.36650
H1158       H  0.36699533  0.51065003  0.71083229     0.29270
H1159       H  0.25529628  0.87433493  0.77482063     0.42140
H1160       H  0.21687067  0.51001937  0.86490815     0.32190
H1161       H  0.28007784  0.50456939  0.86353783     0.39810
H1162       H  0.22614024  0.02111379  0.63243672     0.31660
H1163       H  0.13696015  0.52916001  0.78508746     0.31720
H1164       H  0.20882390  0.61976706  0.72831598     0.31990
Zr1165     Zr  0.43374583  0.74819484  0.74582145     2.17510
O1166       O  0.38262149  0.77322862  0.77223183    -0.50370
O1167       O  0.40915924  0.71012379  0.70845796    -0.73570
O1168       O  0.40486088  0.78669743  0.70628930    -0.80360
O1169       O  0.44670952  0.68156152  0.81393237    -0.82100
O1170       O  0.44495994  0.81334630  0.67549337    -0.77730
O1171       O  0.40570355  0.70821970  0.78311693    -0.89360
O1172       O  0.45155524  0.67873034  0.68264744    -0.75320
O1173       O  0.46906861  0.74721727  0.69678178    -0.84820
O1174       O  0.46992149  0.69800086  0.74973703    -0.84500
O1175       O  0.46285563  0.80002270  0.74663899    -0.71260
O1176       O  0.46363275  0.75381209  0.79623369    -0.83400
Zr1177     Zr  0.06625024  0.75345016  0.75185377     2.26420
Zr1178     Zr  0.49932408  0.79764101  0.69812724     2.06270
Zr1179     Zr  0.00062524  0.70358057  0.79888811     2.10050
Zr1180     Zr  0.00571978  0.69702646  0.70122461     1.78760
O1181       O  0.49208964  0.70716975  0.85931991    -0.92200
O1182       O  0.01008188  0.70272932  0.64061494    -0.40010
O1183       O  0.03743225  0.70145559  0.75069190    -0.76640
O1184       O  0.03674964  0.74752604  0.70121226    -0.95330
O1185       O  0.03031513  0.80373781  0.74717719    -0.88630
O1186       O  0.02994838  0.75441435  0.80012515    -0.91470
C1187       C  0.42027026  0.68708028  0.68829816     1.02280
C1188       C  0.41619157  0.68603881  0.80507634     1.15210
C1189       C  0.41430961  0.80724371  0.68280298     1.05990
O1190       O  0.00710001  0.79747280  0.63735349    -0.93630
O1191       O  0.05409356  0.81620410  0.67966799    -0.89370
O1192       O  0.09453920  0.79097210  0.71214933    -0.82520
C1193       C  0.08466733  0.81112479  0.68820207     1.12630
O1194       O  0.44318366  0.83250087  0.81869338    -0.95600
Zr1195     Zr  0.49469747  0.80456637  0.79579985     1.88940
O1196       O  0.09012416  0.79301416  0.78807421    -0.72250
O1197       O  0.49355558  0.85976200  0.69824720    -0.51510
O1198       O  0.49318557  0.86523743  0.78095654    -0.96190
O1199       O  0.49026121  0.80053230  0.85660978    -0.53410
O1200       O  0.04738743  0.82263207  0.81528328    -0.72770
C1201       C  0.07869631  0.81499320  0.80917421     0.99570
O1202       O  0.11756363  0.72465904  0.72956424    -0.61590
O1203       O  0.00986844  0.64168340  0.80126205    -0.56390
O1204       O  0.09463732  0.72004077  0.79562596    -0.93080
O1205       O  0.05475928  0.68843645  0.82135737    -0.91500
O1206       O  0.00843280  0.63600307  0.71437431    -0.91860
O1207       O  0.05624856  0.66788689  0.67782137    -0.90640
C1208       C  0.08485615  0.69785518  0.81739821     1.18420
H1209       H  0.45764341  0.67751232  0.75070246     0.34360
H1210       H  0.05241775  0.74711247  0.68231523     0.45210
H1211       H  0.04222966  0.75492023  0.82040686     0.38740
H1212       H  0.44703801  0.81951184  0.74499581     0.35220
H1213       H  0.00599790  0.67975829  0.63261453     0.27010
H1214       H  0.49282970  0.86681446  0.67435494     0.32940
H1215       H  0.50230593  0.87613200  0.80039836     0.38850
H1216       H  0.00073627  0.62543484  0.69408066     0.33310
H1217       H  0.00349796  0.63487910  0.82448818     0.32190
H1218       H  0.49541705  0.68333070  0.86784516     0.33870
H1219       H  0.50064281  0.82108946  0.86428382     0.32840
H1220       H  0.07490623  0.67866991  0.68829159     0.36840
H1221       H  0.11517844  0.70016795  0.73514860     0.29570
H1222       H  0.36443266  0.76837238  0.75719929     0.33800
H1223       H  0.45029574  0.85171491  0.83171035     0.36650
H1224       H  0.49223831  0.63317521  0.78745969     0.29270
H1225       H  0.11559989  0.72629133  0.70501205     0.42140
H1226       H  0.48930051  0.78156497  0.63036003     0.32190
H1227       H  0.48957147  0.71754643  0.63446905     0.39810
H1228       H  0.00522531  0.78139543  0.86295767     0.31660
H1229       H  0.47057959  0.86535914  0.70725274     0.31720
H1230       H  0.38466841  0.79821111  0.77000305     0.31990
Zr1231     Zr  0.25047718  0.75058792  0.56436735     2.17510
O1232       O  0.22176131  0.72812812  0.61425001    -0.50370
O1233       O  0.28991708  0.78463956  0.59132789    -0.73570
O1234       O  0.28466122  0.70616795  0.59220494    -0.80360
O1235       O  0.18230915  0.81864457  0.55499330    -0.82100
O1236       O  0.31711301  0.67959357  0.55185047    -0.77730
O1237       O  0.21274134  0.78980589  0.59473829    -0.89360
O1238       O  0.31615093  0.81429142  0.54965702    -0.75320
O1239       O  0.30018236  0.74832146  0.52971823    -0.84820
O1240       O  0.24859562  0.80151821  0.53037398    -0.84500
O1241       O  0.24801118  0.69969933  0.53295926    -0.71260
O1242       O  0.19977028  0.75013998  0.53391881    -0.83400
Zr1243     Zr  0.24914366  0.74326719  0.93077583     2.26420
Zr1244     Zr  0.29724599  0.69882716  0.49714194     2.06270
Zr1245     Zr  0.19890523  0.80067175  0.49914370     2.10050
Zr1246     Zr  0.30006221  0.79725970  0.99309508     1.78760
O1247       O  0.13802008  0.79969471  0.50294782    -0.92200
O1248       O  0.36080877  0.78742855  0.99268259    -0.40010
O1249       O  0.25065419  0.79525075  0.96109066    -0.76640
O1250       O  0.29918857  0.74588845  0.96228753    -0.95330
O1251       O  0.25045647  0.69473707  0.96780073    -0.88630
O1252       O  0.19916430  0.74780999  0.96539254    -0.91470
C1253       C  0.31074296  0.80637340  0.58061739     1.02280
C1254       C  0.19013729  0.81220724  0.58549159     1.15210
C1255       C  0.30779290  0.68442394  0.58246669     1.05990
O1256       O  0.36036877  0.69722798  0.99719227    -0.93630
O1257       O  0.32017922  0.67298999  0.94840093    -0.89370
O1258       O  0.28779222  0.69698791  0.90717927    -0.82520
C1259       C  0.31094376  0.67531740  0.91813114     1.12630
O1260       O  0.17453155  0.67380531  0.55181749    -0.95600
Zr1261     Zr  0.19842551  0.70016812  0.50126041     1.88940
O1262       O  0.21003066  0.70650084  0.90639330    -0.72250
O1263       O  0.29867838  0.63668480  0.49959668    -0.51510
O1264       O  0.21059673  0.63866860  0.49998120    -0.96190
O1265       O  0.13742523  0.70766506  0.50556193    -0.53410
O1266       O  0.18096728  0.67995464  0.94841219    -0.72770
C1267       C  0.18802908  0.68596462  0.91735366     0.99570
O1268       O  0.27543339  0.76496873  0.87917663    -0.61590
O1269       O  0.19809403  0.86077803  0.99069130    -0.56390
O1270       O  0.21369301  0.78854198  0.90237283    -0.93080
O1271       O  0.18249519  0.81809178  0.94182806    -0.91500
O1272       O  0.28996993  0.85893843  0.98776342    -0.91860
O1273       O  0.32695538  0.82121293  0.94303068    -0.90640
C1274       C  0.19123582  0.81183073  0.91140124     1.18420
H1275       H  0.24819400  0.82160722  0.54375501     0.34360
H1276       H  0.31873007  0.74422369  0.94742803     0.45210
H1277       H  0.17939114  0.74894647  0.95211722     0.38740
H1278       H  0.24844297  0.67976711  0.54766912     0.35220
H1279       H  0.36935006  0.81010787  0.99656331     0.27010
H1280       H  0.32221038  0.62948265  0.50447562     0.32940
H1281       H  0.19034057  0.62946297  0.49089160     0.38850
H1282       H  0.31068758  0.86840512  0.99553039     0.33310
H1283       H  0.17525718  0.86812105  0.99899320     0.32190
H1284       H  0.12993792  0.82396029  0.50087118     0.33870
H1285       H  0.12923504  0.68676280  0.49615450     0.32840
H1286       H  0.31483930  0.81217942  0.92437620     0.36840
H1287       H  0.27422261  0.79010871  0.88106497     0.29570
H1288       H  0.23738731  0.73009057  0.63265534     0.33800
H1289       H  0.16146275  0.65496968  0.54425871     0.36650
H1290       H  0.21210192  0.86898575  0.51504313     0.29270
H1291       H  0.29960383  0.75840394  0.88105989     0.42140
H1292       H  0.36536860  0.70776256  0.51267559     0.32190
H1293       H  0.36357411  0.77301829  0.51144673     0.39810
H1294       H  0.13401589  0.72526844  0.98715791     0.31660
H1295       H  0.28571147  0.63077503  0.52023245     0.31720
H1296       H  0.22099646  0.70330367  0.61087891     0.31990
Zr1297     Zr  0.01123067  0.51482642  0.93867823     2.17510
O1298       O  0.48353125  0.99001330  0.87886916    -0.50370
O1299       O  0.05539582  0.55432925  0.92178734    -0.73570
O1300       O  0.46869020  0.55827419  0.91549335    -0.80360
O1301       O  0.06917137  0.93369735  0.94486257    -0.82100
O1302       O  0.43855421  0.58442848  0.95770556    -0.77730
O1303       O  0.04273089  0.96729789  0.90538294    -0.89360
O1304       O  0.08530797  0.56463496  0.96736600    -0.75320
O1305       O  0.00809790  0.55877742  0.97838941    -0.84820
O1306       O  0.05632823  0.50287745  0.97561714    -0.84500
O1307       O  0.45676488  0.51018251  0.96848995    -0.71260
O1308       O  0.00280667  0.95639793  0.96466218    -0.83400
Zr1309     Zr  0.49230368  0.99557568  0.57056632     2.26420
Zr1310     Zr  0.44888666  0.55073932  0.49709335     2.06270
Zr1311     Zr  0.04618791  0.95129469  0.50090203     2.10050
Zr1312     Zr  0.04713241  0.55022159  0.50272466     1.78760
O1313       O  0.04894596  0.88979099  0.00073046    -0.92200
O1314       O  0.03738787  0.61187058  0.50602704    -0.40010
O1315       O  0.04291795  0.99855435  0.53717783    -0.76640
O1316       O  0.49569851  0.54812715  0.53308155    -0.95330
O1317       O  0.44460690  0.00021105  0.53655276    -0.88630
O1318       O  0.49682301  0.94798445  0.53470566    -0.91470
C1319       C  0.08029299  0.56678204  0.93616103     1.02280
C1320       C  0.06340436  0.94251524  0.91442116     1.15210
C1321       C  0.44616339  0.58045337  0.92687567     1.05990
O1322       O  0.44812810  0.61281599  0.49609349    -0.93630
O1323       O  0.42888609  0.56923153  0.55180378    -0.89370
O1324       O  0.45315402  0.53516422  0.59221329    -0.82520
C1325       C  0.43354243  0.56017243  0.58244531     1.12630
O1326       O  0.42565161  0.93127535  0.94329729    -0.95600
Zr1327     Zr  0.44850559  0.95234154  0.99391620     1.88940
O1328       O  0.45262010  0.95651841  0.59587713    -0.72250
O1329       O  0.38792949  0.54997587  0.49944518    -0.51510
O1330       O  0.38836936  0.96664425  0.99279140    -0.96190
O1331       O  0.45565483  0.89047418  0.98970625    -0.53410
O1332       O  0.42785628  0.93199578  0.55319778    -0.72770
C1333       C  0.43205754  0.93617451  0.58430797     0.99570
O1334       O  0.01507999  0.51673232  0.61538675    -0.61590
O1335       O  0.10726243  0.94998202  0.50084101    -0.56390
O1336       O  0.02907025  0.95355723  0.59676743    -0.93080
O1337       O  0.06521562  0.93293698  0.55610201    -0.91500
O1338       O  0.10754620  0.53844147  0.50502328    -0.91860
O1339       O  0.07019440  0.57416765  0.55175687    -0.90640
C1340       C  0.05520571  0.93578529  0.58685465     1.18420
H1341       H  0.07769632  0.50159025  0.96359320     0.34360
H1342       H  0.49400158  0.56706343  0.54800216     0.45210
H1343       H  0.49744548  0.92673227  0.54748112     0.38740
H1344       H  0.43896690  0.51383844  0.95285824     0.35220
H1345       H  0.05927741  0.62118782  0.49963877     0.27010
H1346       H  0.37995441  0.57373713  0.49382989     0.32940
H1347       H  0.37909044  0.94457945  0.50789592     0.38850
H1348       H  0.11736440  0.56001645  0.49738471     0.33310
H1349       H  0.11462627  0.92590205  0.49676700     0.32190
H1350       H  0.07280268  0.88147270  0.00121797     0.33870
H1351       H  0.43476630  0.88169214  0.99976992     0.32840
H1352       H  0.05997541  0.56157502  0.57089183     0.36840
H1353       H  0.03966070  0.51222102  0.61282102     0.29570
H1354       H  0.48752442  0.00879030  0.86244661     0.33800
H1355       H  0.40692155  0.91718317  0.95083558     0.36650
H1356       H  0.11776929  0.96345675  0.97807617     0.29270
H1357       H  0.01197734  0.54185280  0.61268909     0.42140
H1358       H  0.47317078  0.62329954  0.00420807     0.32190
H1359       H  0.03928729  0.61582193  0.99266936     0.39810
H1360       H  0.47410349  0.88441297  0.51514307     0.31660
H1361       H  0.38931612  0.54560524  0.98162557     0.31720
H1362       H  0.45883015  0.99013297  0.88196154     0.31990
C1363       C  0.36966783  0.86997032  0.61954556    -0.01520
C1364       C  0.37870635  0.61899393  0.86542068    -0.01520
C1365       C  0.12237758  0.87308480  0.86947924    -0.01520
C1366       C  0.12635765  0.62765969  0.87403230    -0.01520
C1367       C  0.37654223  0.62878823  0.62779817    -0.01520
C1368       C  0.12545300  0.87689662  0.62715164    -0.01520
C1369       C  0.07475847  0.91679954  0.61272850    -0.15470
C1370       C  0.10564862  0.90316366  0.60538779    -0.30640
H1371       H  0.06314822  0.91266790  0.63729403     0.13550
H1372       H  0.11664336  0.91009859  0.58110490     0.14130
C1373       C  0.41567328  0.58017873  0.60859103    -0.15470
C1374       C  0.39542795  0.60771510  0.60117165    -0.30640
H1375       H  0.41933674  0.57246428  0.63453278     0.13550
H1376       H  0.39212265  0.61492583  0.57500363     0.14130
C1377       C  0.09910400  0.60769541  0.89239827    -0.15470
C1378       C  0.10620418  0.58437906  0.91653862    -0.30640
H1379       H  0.07293828  0.61237959  0.88597441     0.13550
H1380       H  0.13189953  0.58067798  0.92458009     0.14130
C1381       C  0.10361566  0.89569015  0.89556741    -0.15470
C1382       C  0.08183643  0.92241027  0.88801616    -0.30640
H1383       H  0.10786860  0.88964436  0.92179258     0.13550
H1384       H  0.07720841  0.92917222  0.86204444     0.14130
C1385       C  0.40016457  0.59486671  0.88821135    -0.15470
C1386       C  0.42746875  0.60408672  0.90382957    -0.30640
H1387       H  0.39399640  0.56825630  0.89098562     0.13550
H1388       H  0.43378758  0.63062225  0.90283277     0.14130
C1389       C  0.38885970  0.89505152  0.59725827    -0.15470
C1390       C  0.41213274  0.91541763  0.60818114    -0.30640
H1391       H  0.38435689  0.89603182  0.57067430     0.13550
H1392       H  0.41751008  0.91563810  0.63453881     0.14130
C1393       C  0.17163806  0.83195478  0.61172995    -0.15470
C1394       C  0.14898776  0.85699465  0.60319904    -0.30640
H1395       H  0.17634764  0.82569662  0.63771166     0.13550
H1396       H  0.14629232  0.86251076  0.57666328     0.14130
C1397       C  0.14192596  0.84479448  0.88941218    -0.15470
C1398       C  0.17461897  0.83417158  0.88541784    -0.30640
H1399       H  0.12762729  0.83251458  0.90950665     0.13550
H1400       H  0.18969098  0.84301380  0.86428650     0.14130
C1401       C  0.32627882  0.64871958  0.89563090    -0.15470
C1402       C  0.35937934  0.64656657  0.88688626    -0.30640
H1403       H  0.31052304  0.62818646  0.89039922     0.13550
H1404       H  0.37436021  0.66652646  0.89574472     0.14130
C1405       C  0.35723884  0.65715164  0.60839807    -0.15470
C1406       C  0.32376164  0.66226735  0.60819674    -0.30640
H1407       H  0.37208418  0.67281150  0.59135740     0.13550
H1408       H  0.30746957  0.64896699  0.62561130     0.14130
C1409       C  0.34863978  0.84986122  0.59650707    -0.15470
C1410       C  0.32969096  0.82367618  0.60567005    -0.30640
H1411       H  0.34929214  0.85699842  0.57012890     0.13550
H1412       H  0.32719548  0.81547617  0.63161135     0.14130
C1413       C  0.17022408  0.66788994  0.89195730    -0.15470
C1414       C  0.14383456  0.64873086  0.89939907    -0.30640
H1415       H  0.17927519  0.67078132  0.86637423     0.13550
H1416       H  0.13498338  0.64717661  0.92531896     0.14130
C1417       C  0.09620673  0.85710888  0.84901086    -0.15470
C1418       C  0.10397475  0.83162132  0.82797834    -0.30640
H1419       H  0.06998958  0.86576382  0.85238286     0.13550
H1420       H  0.12972598  0.82146931  0.82537367     0.14130
C1421       C  0.10164235  0.85234864  0.64428748    -0.15470
C1422       C  0.11013073  0.83053802  0.66965439    -0.30640
H1423       H  0.07589948  0.85340454  0.63628073     0.13550
H1424       H  0.13554910  0.82858424  0.67845450     0.14130
C1425       C  0.40203430  0.63732346  0.84123489    -0.15470
C1426       C  0.39165640  0.66403576  0.82160999    -0.30640
H1427       H  0.42877532  0.63042437  0.84191917     0.13550
H1428       H  0.36507049  0.67092362  0.81957313     0.14130
C1429       C  0.10930882  0.68188109  0.84020489    -0.15470
C1430       C  0.10821128  0.64831374  0.84692062    -0.30640
H1431       H  0.12615967  0.69784125  0.85229250     0.13550
H1432       H  0.09231196  0.63388817  0.83162372     0.14130
C1433       C  0.38788683  0.82596669  0.66363376    -0.15470
C1434       C  0.39535674  0.84617110  0.63701585    -0.30640
H1435       H  0.36214526  0.82490788  0.67293259     0.13550
H1436       H  0.42150331  0.84714244  0.62871562     0.14130
C1437       C  0.39465404  0.66974618  0.67030751    -0.15470
C1438       C  0.40238206  0.64431300  0.64915966    -0.30640
H1439       H  0.36876428  0.67936838  0.67342829     0.13550
H1440       H  0.42866411  0.63599032  0.64554230     0.14130
C1441       C  0.14445361  0.89626066  0.84779707    -0.15470
C1442       C  0.16164878  0.88812788  0.81910371    -0.30640
H1443       H  0.14519904  0.92236448  0.85596875     0.13550
H1444       H  0.16243455  0.86253839  0.80978062     0.14130
C1445       C  0.35439146  0.60443034  0.64807560    -0.15470
C1446       C  0.33431952  0.61230569  0.67482651    -0.30640
H1447       H  0.35495334  0.57822525  0.63990890     0.13550
H1448       H  0.33204944  0.63815405  0.68369390     0.14130
C1449       C  0.35858088  0.59556354  0.84483452    -0.15470
C1450       C  0.32767100  0.60202274  0.83335306    -0.30640
H1451       H  0.37199444  0.57221287  0.83653491     0.13550
H1452       H  0.31495258  0.62695809  0.83598042     0.14130
C1453       C  0.17297661  0.61109687  0.83240667    -0.15470
C1454       C  0.15113678  0.60231530  0.85714564    -0.30640
H1455       H  0.17443509  0.63749405  0.82408160     0.13550
H1456       H  0.14934600  0.57540025  0.86369112     0.14130
C1457       C  0.31576977  0.89111879  0.65118420    -0.15470
C1458       C  0.34917529  0.89111148  0.64518262    -0.30640
H1459       H  0.30034620  0.87358682  0.63927361     0.13550
H1460       H  0.36322565  0.90793604  0.65979776     0.14130
C1461       C  0.14460428  0.89521728  0.65283925    -0.15470
C1462       C  0.16477612  0.92042666  0.64442424    -0.30640
H1463       H  0.14112400  0.88855593  0.67918736     0.13550
H1464       H  0.16686447  0.92939909  0.61858853     0.14130
Zr1465     Zr  0.75155784  0.06636165  0.25275437     2.17510
O1466       O  0.72588469  0.11781441  0.22668043    -0.50370
O1467       O  0.78834987  0.09186342  0.29012517    -0.73570
O1468       O  0.71383729  0.09450953  0.29373443    -0.80360
O1469       O  0.81889893  0.05414863  0.18582699    -0.82100
O1470       O  0.68442377  0.05346441  0.32058197    -0.77730
O1471       O  0.79144912  0.09558602  0.21641967    -0.89360
O1472       O  0.81787196  0.04862480  0.31687784    -0.75320
O1473       O  0.75025604  0.03024587  0.30144329    -0.84820
O1474       O  0.80111263  0.02966928  0.25043840    -0.84500
O1475       O  0.70104444  0.03642523  0.24970574    -0.71260
O1476       O  0.74864101  0.03597250  0.20184312    -0.83400
Zr1477     Zr  0.74815895  0.42782407  0.24750703     2.26420
Zr1478     Zr  0.70119892  0.99902970  0.29785817     2.06270
Zr1479     Zr  0.80149761  0.49517693  0.20476876     2.10050
Zr1480     Zr  0.80276378  0.48426658  0.30262683     1.78760
O1481       O  0.79482499  0.00527456  0.14034821    -0.92200
O1482       O  0.79573284  0.46654808  0.36105564    -0.40010
O1483       O  0.79978521  0.45555185  0.25120037    -0.76640
O1484       O  0.75166216  0.45590752  0.29948485    -0.95330
O1485       O  0.69987588  0.46613545  0.25103458    -0.88630
O1486       O  0.75121221  0.46594629  0.20022872    -0.91470
C1487       C  0.81045313  0.08049139  0.31062916     1.02280
C1488       C  0.81361135  0.08538166  0.19439956     1.15210
C1489       C  0.69202905  0.08443456  0.31557905     1.05990
O1490       O  0.70416611  0.48928315  0.36198420    -0.93630
O1491       O  0.68186120  0.44183117  0.31612717    -0.89370
O1492       O  0.70666732  0.40036523  0.28371367    -0.82520
C1493       C  0.68582489  0.41084689  0.30685535     1.12630
O1494       O  0.67186712  0.05582605  0.17644476    -0.95600
Zr1495     Zr  0.69930386  0.00396870  0.20016667     1.88940
O1496       O  0.71170514  0.40506029  0.20795584    -0.72250
O1497       O  0.64018538  0.00575313  0.29721890    -0.51510
O1498       O  0.63920235  0.00488588  0.21297308    -0.96190
O1499       O  0.70600070  0.00846224  0.13952930    -0.53410
O1500       O  0.68331987  0.45022333  0.18300685    -0.72770
C1501       C  0.69009724  0.41791516  0.18762142     0.99570
O1502       O  0.77117527  0.37428493  0.27210005    -0.61590
O1503       O  0.86256620  0.48919362  0.20391210    -0.56390
O1504       O  0.78823586  0.39892765  0.20927623    -0.93080
O1505       O  0.81868112  0.43979082  0.18323615    -0.91500
O1506       O  0.86287168  0.48962298  0.29372813    -0.91860
O1507       O  0.83436891  0.43133935  0.31712256    -0.90640
C1508       C  0.81095433  0.40873306  0.18828695     1.18420
H1509       H  0.82117027  0.04227552  0.25005030     0.34360
H1510       H  0.75019537  0.43952555  0.31785099     0.45210
H1511       H  0.75171676  0.45371899  0.17964809     0.38740
H1512       H  0.68176396  0.05243105  0.25072039     0.35220
H1513       H  0.81640917  0.47298630  0.37162777     0.27010
H1514       H  0.63296591  0.00883174  0.32086823     0.32940
H1515       H  0.62944316  0.99493017  0.19335140     0.38850
H1516       H  0.87123346  0.49382662  0.31611863     0.33310
H1517       H  0.86944235  0.49263016  0.18014542     0.32190
H1518       H  0.81833406  0.00186545  0.13193498     0.33910
H1519       H  0.68555347  0.99912069  0.13098950     0.32840
H1520       H  0.81808483  0.41343831  0.31556138     0.36840
H1521       H  0.79581946  0.37537541  0.26944440     0.29570
H1522       H  0.73043328  0.13645665  0.24170624     0.33800
H1523       H  0.65356783  0.04820219  0.16291828     0.36650
H1524       H  0.86646194  0.00854092  0.21407734     0.29270
H1525       H  0.76676513  0.37625607  0.29644079     0.42140
H1526       H  0.71435044  0.01050402  0.36608787     0.32190
H1527       H  0.77744309  0.01212721  0.36456249     0.39810
H1528       H  0.72907579  0.49324982  0.13743521     0.31660
H1529       H  0.63511007  0.02827355  0.28621928     0.31720
H1530       H  0.70141820  0.11525987  0.22927509     0.31990
Zr1531     Zr  0.93687343  0.24511619  0.24878474     2.17510
O1532       O  0.88633586  0.26891425  0.27718127    -0.50370
O1533       O  0.91158511  0.20828412  0.21135513    -0.73570
O1534       O  0.90744946  0.28320811  0.20888139    -0.80360
O1535       O  0.95487338  0.17104356  0.31011092    -0.82100
O1536       O  0.94677155  0.31382087  0.18104362    -0.77730
O1537       O  0.91182762  0.20014727  0.28388110    -0.89360
O1538       O  0.95407935  0.17916419  0.18325473    -0.75320
O1539       O  0.97142659  0.24830714  0.19915837    -0.84820
O1540       O  0.97458951  0.19596905  0.24871961    -0.84500
O1541       O  0.96525965  0.29738439  0.25118229    -0.71260
O1542       O  0.96734273  0.24863729  0.29902513    -0.83400
Zr1543     Zr  0.56988725  0.25268555  0.25218819     2.26420
Zr1544     Zr  0.00145133  0.29879600  0.20223429     2.06270
Zr1545     Zr  0.50585505  0.19917547  0.29785127     2.10050
Zr1546     Zr  0.50869850  0.19854589  0.19948263     1.78760
O1547       O  0.99527193  0.20436124  0.35784342    -0.92200
O1548       O  0.50931734  0.20855522  0.13923033    -0.40010
O1549       O  0.54128993  0.20077821  0.24860326    -0.76640
O1550       O  0.53954907  0.24917076  0.20167914    -0.95330
O1551       O  0.53257815  0.30209895  0.25125436    -0.88630
O1552       O  0.53472014  0.25012475  0.30128254    -0.91470
C1553       C  0.92272692  0.18616135  0.19037352     1.02280
C1554       C  0.92409224  0.17554312  0.30259266     1.15210
C1555       C  0.91654303  0.30547397  0.18672764     1.05990
O1556       O  0.50872322  0.29729980  0.14158513    -0.93630
O1557       O  0.55441236  0.32223076  0.18544637    -0.89370
O1558       O  0.59522031  0.29763206  0.21797984    -0.82520
C1559       C  0.58476147  0.31898782  0.19516158     1.12630
O1560       O  0.94589153  0.32553403  0.32530210    -0.95600
Zr1561     Zr  0.99747457  0.29985807  0.30022316     1.88940
O1562       O  0.59362402  0.28903715  0.29159658    -0.72250
O1563       O  0.99282296  0.36075396  0.20252376    -0.51510
O1564       O  0.99391274  0.36103581  0.28766477    -0.96190
O1565       O  0.99490817  0.29341675  0.36093241    -0.53410
O1566       O  0.55052927  0.31879607  0.31814208    -0.72770
C1567       C  0.58187600  0.31121645  0.31234264     0.99570
O1568       O  0.62134423  0.23002946  0.22447137    -0.61590
O1569       O  0.51975631  0.13794760  0.30146236    -0.56390
O1570       O  0.60006242  0.21230334  0.28963553    -0.93080
O1571       O  0.56024226  0.18317911  0.31823334    -0.91500
O1572       O  0.51433546  0.13696390  0.20888577    -0.91860
O1573       O  0.55872719  0.17243638  0.17210155    -0.90640
C1574       C  0.59066990  0.19030003  0.31191719     1.18420
H1575       H  0.96321963  0.17496703  0.24843290     0.34360
H1576       H  0.55479567  0.25036647  0.18250442     0.45210
H1577       H  0.54761150  0.24950774  0.32124910     0.38740
H1578       H  0.94903620  0.31660384  0.25066673     0.35220
H1579       H  0.50590128  0.18596165  0.12995848     0.27010
H1580       H  0.98873978  0.36762654  0.17898214     0.32940
H1581       H  0.00366633  0.37142455  0.30705453     0.38850
H1582       H  0.50493588  0.12736389  0.18889263     0.33310
H1583       H  0.51081469  0.13042230  0.32364046     0.32190
H1584       H  0.00400154  0.18221712  0.36745228     0.33870
H1585       H  0.00316230  0.31486381  0.36908864     0.32840
H1586       H  0.57761942  0.18209962  0.18325346     0.36840
H1587       H  0.62013108  0.20492537  0.22625857     0.29570
H1588       H  0.86776995  0.26355735  0.26282128     0.33800
H1589       H  0.95277349  0.34470569  0.33851816     0.36650
H1590       H  0.00478894  0.12842827  0.28511548     0.29270
H1591       H  0.61837844  0.23551097  0.20045258     0.42140
H1592       H  0.98914840  0.28682558  0.13389310     0.32190
H1593       H  0.98716625  0.22233912  0.13518784     0.39810
H1594       H  0.51302567  0.27565197  0.36622606     0.31660
H1595       H  0.97093821  0.36527663  0.21436584     0.31720
H1596       H  0.88774518  0.29395998  0.27471376     0.31990
Zr1597     Zr  0.75261923  0.24921426  0.06636128     2.17510
O1598       O  0.72438531  0.22651219  0.11643263    -0.50370
O1599       O  0.78695970  0.28862164  0.09318708    -0.73570
O1600       O  0.78781627  0.20620279  0.09541053    -0.80360
O1601       O  0.68490167  0.31875106  0.05436808    -0.82100
O1602       O  0.82003273  0.17778209  0.05604163    -0.77730
O1603       O  0.71170444  0.28720120  0.09490841    -0.89360
O1604       O  0.81813653  0.31397232  0.05202728    -0.75320
O1605       O  0.80337104  0.24577807  0.03309057    -0.84820
O1606       O  0.75252007  0.29953970  0.03172083    -0.84500
O1607       O  0.75101557  0.19796701  0.03522688    -0.71260
O1608       O  0.70296449  0.24844910  0.03449142    -0.83400
Zr1609     Zr  0.74719157  0.24678258  0.43532931     2.26420
Zr1610     Zr  0.80133948  0.19574922  0.00078737     2.06270
Zr1611     Zr  0.70379884  0.29867598  0.99950343     2.10050
Zr1612     Zr  0.79839630  0.29802296  0.49864359     1.78760
O1613       O  0.64291954  0.29732313  0.00179570    -0.92200
O1614       O  0.85918750  0.28817058  0.49609290    -0.40010
O1615       O  0.74922650  0.29789222  0.46634409    -0.76640
O1616       O  0.79771146  0.24809715  0.46588051    -0.95330
O1617       O  0.74900097  0.19636296  0.46975608    -0.88630
O1618       O  0.69757200  0.24959926  0.47013278    -0.91470
C1619       C  0.80890967  0.30926386  0.08266701     1.02280
C1620       C  0.69056664  0.31094011  0.08515841     1.15210
C1621       C  0.81072926  0.18381015  0.08640714     1.05990
O1622       O  0.85910845  0.19941370  0.49482022    -0.93630
O1623       O  0.81572269  0.17500638  0.44745889    -0.89370
O1624       O  0.78367488  0.20307702  0.40836410    -0.82520
C1625       C  0.80668277  0.18071531  0.41726056     1.12630
O1626       O  0.67586568  0.17263913  0.05109377    -0.95600
Zr1627     Zr  0.70265888  0.19841612  0.00171868     1.88940
O1628       O  0.70483331  0.21549629  0.40948921    -0.72250
O1629       O  0.79994292  0.13381212  0.00514032    -0.51510
O1630       O  0.71400144  0.13676355  0.00199835    -0.96190
O1631       O  0.64164666  0.20673475  0.00281644    -0.53410
O1632       O  0.68086930  0.18310673  0.45074130    -0.72770
C1633       C  0.68464506  0.19312896  0.42019116     0.99570
O1634       O  0.77568465  0.26809445  0.38465974    -0.61590
O1635       O  0.69930540  0.36180732  0.49853459    -0.56390
O1636       O  0.71474488  0.29262438  0.40713780    -0.93080
O1637       O  0.68213471  0.31985441  0.44701109    -0.91500
O1638       O  0.78868240  0.35984099  0.49748862    -0.91860
O1639       O  0.82466248  0.32546308  0.45001731    -0.90640
C1640       C  0.69186873  0.31486945  0.41660624     1.18420
H1641       H  0.75154533  0.31993116  0.04469832     0.34360
H1642       H  0.81701702  0.24712676  0.45068364     0.45210
H1643       H  0.67756681  0.25135229  0.45720240     0.38740
H1644       H  0.75079782  0.17831853  0.05028475     0.35220
H1645       H  0.86790397  0.31031920  0.50173106     0.27010
H1646       H  0.82324087  0.12570379  0.01002633     0.32940
H1647       H  0.69445982  0.12776814  0.99134826     0.38850
H1648       H  0.80930844  0.36847938  0.50636603     0.33310
H1649       H  0.67591391  0.36958647  0.50453951     0.32190
H1650       H  0.63474840  0.32147597  0.99879268     0.33870
H1651       H  0.63373602  0.18599858  0.99283219     0.32840
H1652       H  0.81576711  0.31418637  0.43069285     0.36840
H1653       H  0.77480077  0.29322337  0.38650547     0.29570
H1654       H  0.73967726  0.22947505  0.13492259     0.33800
H1655       H  0.66250412  0.15435155  0.04284932     0.36650
H1656       H  0.71659699  0.36728942  0.01476981     0.29270
H1657       H  0.79972992  0.26128240  0.38721557     0.42140
H1658       H  0.86892031  0.20575912  0.01749017     0.32190
H1659       H  0.86725633  0.27070996  0.01863182     0.39810
H1660       H  0.63291864  0.22543709  0.49125172     0.31660
H1661       H  0.78689776  0.12908508  0.02603345     0.31720
H1662       H  0.72454860  0.20154486  0.11351308     0.31990
Zr1663     Zr  0.50252595  0.01122304  0.43672641     2.17510
O1664       O  0.99161803  0.48339166  0.37939399    -0.50370
O1665       O  0.54066208  0.05180794  0.41166573    -0.73570
O1666       O  0.95503468  0.04554328  0.41044615    -0.80360
O1667       O  0.56904580  0.43226174  0.44538003    -0.82100
O1668       O  0.92417151  0.07077237  0.45275669    -0.77730
O1669       O  0.54381110  0.46505421  0.40468066    -0.89360
O1670       O  0.56881420  0.07440117  0.45321983    -0.75320
O1671       O  0.49918002  0.05872956  0.47266052    -0.84820
O1672       O  0.55068777  0.00536102  0.47067688    -0.84500
O1673       O  0.95050890  0.00425272  0.46782795    -0.71260
O1674       O  0.50274077  0.45457834  0.46325377    -0.83400
Zr1675     Zr  0.99202435  0.49100513  0.07109154     2.26420
Zr1676     Zr  0.95244029  0.05165387  0.00373726     2.06270
Zr1677     Zr  0.54669334  0.45007627  0.00363207     2.10050
Zr1678     Zr  0.54833132  0.04960223  0.00193508     1.78760
O1679       O  0.54983499  0.38972544  0.49994793    -0.92200
O1680       O  0.54007594  0.11132173  0.00613014    -0.40010
O1681       O  0.54400856  0.49418281  0.04370407    -0.76640
O1682       O  0.00004604  0.04755334  0.03805816    -0.95330
O1683       O  0.94604790  0.50035339  0.03512583    -0.88630
O1684       O  0.99547462  0.44559716  0.03249109    -0.91470
C1685       C  0.56277823  0.07095237  0.42230491     1.02280
C1686       C  0.56390729  0.44044923  0.41471352     1.15210
C1687       C  0.93002144  0.06458219  0.42197775     1.05990
O1688       O  0.94194035  0.11234670  0.01323109    -0.93630
O1689       O  0.93225887  0.06771351  0.05831047    -0.89370
O1690       O  0.95595008  0.03237375  0.09774417    -0.82520
C1691       C  0.93643786  0.05772329  0.08859365     1.12630
O1692       O  0.92923763  0.42570641  0.44602528    -0.95600
Zr1693     Zr  0.95076213  0.44948604  0.49601680     1.88940
O1694       O  0.94989579  0.45379545  0.09245293    -0.72250
O1695       O  0.89277493  0.04595739  0.99627399    -0.51510
O1696       O  0.89037437  0.46214741  0.49473480    -0.96190
O1697       O  0.95898391  0.38754614  0.49376369    -0.53410
O1698       O  0.92674581  0.43004037  0.04824273    -0.72770
C1699       C  0.93002343  0.43365232  0.07978014     0.99570
O1700       O  0.51763200  0.01184520  0.11520559    -0.61590
O1701       O  0.60776460  0.44603336  0.00534426    -0.56390
O1702       O  0.52760002  0.44924722  0.09932643    -0.93080
O1703       O  0.56295858  0.42830954  0.05813530    -0.91500
O1704       O  0.60859210  0.03613239  0.00206109    -0.91860
O1705       O  0.57414121  0.07163172  0.05042544    -0.90640
C1706       C  0.55307771  0.43068234  0.08886515     1.18420
H1707       H  0.57116677  0.00511007  0.45714395     0.34360
H1708       H  0.99894492  0.06598116  0.05357288     0.45210
H1709       H  0.99444431  0.42371547  0.04401157     0.38740
H1710       H  0.93137219  0.00514258  0.45372346     0.35220
H1711       H  0.56254135  0.12003742  0.00126011     0.27010
H1712       H  0.88166232  0.06592609  0.00749092     0.32940
H1713       H  0.87885693  0.45242891  0.00475088     0.38850
H1714       H  0.61870641  0.05711063  0.99316909     0.33310
H1715       H  0.61407925  0.42135130  0.00383602     0.32190
H1716       H  0.57377260  0.38204172  0.50167514     0.33870
H1717       H  0.93803258  0.37872427  0.50364490     0.32840
H1718       H  0.56368432  0.05951828  0.06974338     0.36840
H1719       H  0.54209148  0.00714863  0.11163203     0.29570
H1720       H  0.99501157  0.50198831  0.36261152     0.33800
H1721       H  0.90999142  0.41242106  0.45375684     0.36650
H1722       H  0.61726277  0.46305173  0.47904788     0.29270
H1723       H  0.51486135  0.03707157  0.11403611     0.42140
H1724       H  0.95930475  0.11958771  0.48122692     0.32190
H1725       H  0.52388552  0.12099337  0.49121500     0.39810
H1726       H  0.97439633  0.38568814  0.00402416     0.31660
H1727       H  0.88025943  0.03789108  0.49139976     0.31720
H1728       H  0.96708331  0.48090542  0.38075216     0.31990
C1729       C  0.87226115  0.36639618  0.12148053    -0.01520
C1730       C  0.87307228  0.12436337  0.36634719    -0.01520
C1731       C  0.62304222  0.37129737  0.37210167    -0.01520
C1732       C  0.62999420  0.12829873  0.37966979    -0.01520
C1733       C  0.87848386  0.12662698  0.13198567    -0.01520
C1734       C  0.62800651  0.37782487  0.12791548    -0.01520
C1735       C  0.57296253  0.41072832  0.11371268    -0.15470
C1736       C  0.60500022  0.40054099  0.10601926    -0.30640
H1737       H  0.56156460  0.40447305  0.13793112     0.13550
H1738       H  0.61590796  0.41051986  0.08273837     0.14130
C1739       C  0.91787330  0.07737235  0.11451192    -0.15470
C1740       C  0.89758952  0.10477242  0.10626441    -0.30640
H1741       H  0.92115747  0.06991301  0.14056538     0.13550
H1742       H  0.89462701  0.11159191  0.07996840     0.14130
C1743       C  0.60792296  0.10941123  0.40533465    -0.15470
C1744       C  0.58296946  0.08979392  0.39697154    -0.30640
H1745       H  0.61260456  0.11186673  0.43171381     0.13550
H1746       H  0.57778440  0.08700939  0.37079047     0.14130
C1747       C  0.60354917  0.39334163  0.39763210    -0.15470
C1748       C  0.58233804  0.41992820  0.38913842    -0.30640
H1749       H  0.60707181  0.38738914  0.42401756     0.13550
H1750       H  0.57847572  0.42646646  0.36297284     0.14130
C1751       C  0.90466204  0.10637986  0.38116992    -0.15470
C1752       C  0.90317223  0.07759046  0.40000972    -0.30640
H1753       H  0.92867522  0.11796207  0.37782784     0.13550
H1754       H  0.87892449  0.06692430  0.40475853     0.14130
C1755       C  0.89100820  0.38816656  0.09536736    -0.15470
C1756       C  0.91026914  0.41329164  0.10401330    -0.30640
H1757       H  0.88907342  0.38312984  0.06897537     0.13550
H1758       H  0.91246837  0.41840118  0.13033428     0.14130
C1759       C  0.67123673  0.33033294  0.11133370    -0.15470
C1760       C  0.65225855  0.35873331  0.10358777    -0.30640
H1761       H  0.67169725  0.32049999  0.13690620     0.13550
H1762       H  0.65266685  0.36713507  0.07748955     0.14130
C1763       C  0.64256844  0.34383773  0.39239148    -0.15470
C1764       C  0.67593476  0.33705474  0.39093678    -0.30640
H1765       H  0.62788380  0.32941886  0.41067430     0.13550
H1766       H  0.69204525  0.34855900  0.37209588     0.14130
C1767       C  0.82440054  0.16140854  0.39016659    -0.15470
C1768       C  0.85075220  0.13885511  0.39508842    -0.30640
H1769       H  0.81744405  0.16870517  0.36498760     0.13550
H1770       H  0.85819361  0.13306261  0.42056298     0.14130
C1771       C  0.85974623  0.15493520  0.11184832    -0.15470
C1772       C  0.82645549  0.16214532  0.11269194    -0.30640
H1773       H  0.87485929  0.16918306  0.09380206     0.13550
H1774       H  0.80996827  0.15078447  0.13126724     0.14130
C1775       C  0.85529176  0.33990118  0.10214173    -0.15470
C1776       C  0.82371093  0.33046886  0.10710423    -0.30640
H1777       H  0.87053566  0.32747504  0.08245658     0.13550
H1778       H  0.80793103  0.33926899  0.12790629     0.14130
C1779       C  0.66318746  0.17858174  0.39606050    -0.15470
C1780       C  0.65540658  0.14583559  0.39958645    -0.30640
H1781       H  0.65339260  0.19526786  0.37634076     0.13550
H1782       H  0.66846222  0.12994849  0.41831973     0.14130
C1783       C  0.59794012  0.35456126  0.35114770    -0.15470
C1784       C  0.60664374  0.32856861  0.33100098    -0.30640
H1785       H  0.57156211  0.36288805  0.35374849     0.13550
H1786       H  0.63256071  0.31880492  0.32898446     0.14130
C1787       C  0.60671763  0.35193053  0.14697437    -0.15470
C1788       C  0.60905143  0.34207903  0.17934314    -0.30640
H1789       H  0.58836741  0.33999069  0.13238176     0.13550
H1790       H  0.62862669  0.35071323  0.19449115     0.14130
C1791       C  0.88418470  0.15402034  0.34398023    -0.15470
C1792       C  0.90262514  0.14907251  0.31592130    -0.30640
H1793       H  0.88011390  0.17995408  0.35275575     0.13550
H1794       H  0.90858467  0.12315377  0.30793724     0.14130
C1795       C  0.61625853  0.17129650  0.33182485    -0.15470
C1796       C  0.60702997  0.15255103  0.35910501    -0.30640
H1797       H  0.64223544  0.17257084  0.32372448     0.13550
H1798       H  0.58056503  0.15355221  0.36654786     0.14130
C1799       C  0.89052496  0.32263035  0.16597120    -0.15470
C1800       C  0.89781818  0.34810631  0.14402141    -0.30640
H1801       H  0.86546536  0.31343232  0.16799077     0.13550
H1802       H  0.92361477  0.35546803  0.14155245     0.14130
C1803       C  0.89689622  0.16829898  0.17335754    -0.15470
C1804       C  0.90438583  0.14218249  0.15312654    -0.30640
H1805       H  0.87100228  0.17791536  0.17657264     0.13550
H1806       H  0.93064438  0.13363869  0.14974878     0.14130
C1807       C  0.64506705  0.39475393  0.35097283    -0.15470
C1808       C  0.66503384  0.38562701  0.32449119    -0.30640
H1809       H  0.64450118  0.42124970  0.35827206     0.13550
H1810       H  0.66720343  0.35952825  0.31641161     0.14130
C1811       C  0.85574810  0.10282751  0.15208503    -0.15470
C1812       C  0.83482321  0.11124380  0.17797915    -0.30640
H1813       H  0.85624952  0.07652645  0.14418118     0.13550
H1814       H  0.83257733  0.13719226  0.18663132     0.14130
C1815       C  0.85477626  0.09848356  0.34682879    -0.15470
C1816       C  0.82814638  0.10649105  0.32799821    -0.30640
H1817       H  0.86416316  0.07194707  0.34779441     0.13550
H1818       H  0.81949986  0.13291614  0.32423629     0.14130
C1819       C  0.67449166  0.11021369  0.33663973    -0.15470
C1820       C  0.64869976  0.10237166  0.35753966    -0.30640
H1821       H  0.68350781  0.13573896  0.33554778     0.13550
H1822       H  0.64127716  0.07615400  0.35922663     0.14130
C1823       C  0.82997441  0.38233970  0.16887131    -0.15470
C1824       C  0.84823802  0.39070009  0.14125828    -0.30640
H1825       H  0.82900790  0.35615989  0.17776890     0.13550
H1826       H  0.84701962  0.41740779  0.13310172     0.14130
C1827       C  0.64612500  0.40216177  0.14944293    -0.15470
C1828       C  0.67247411  0.39306797  0.16834699    -0.30640
H1829       H  0.63786716  0.42907487  0.14841890     0.13550
H1830       H  0.68143851  0.36650365  0.17006815     0.14130
Zr1831     Zr  0.75018527  0.07117367  0.75237828     2.17510
O1832       O  0.72754010  0.12539874  0.72911107    -0.50370
O1833       O  0.78705902  0.09356403  0.79148035    -0.73570
O1834       O  0.71054327  0.09824023  0.79225044    -0.80360
O1835       O  0.81534484  0.05996429  0.68298692    -0.82100
O1836       O  0.68185541  0.05643439  0.81886902    -0.77730
O1837       O  0.78966377  0.10053233  0.71589998    -0.89360
O1838       O  0.81638311  0.04772881  0.81412000    -0.75320
O1839       O  0.74860031  0.03195437  0.79882604    -0.84820
O1840       O  0.79886889  0.03338061  0.74710585    -0.84500
O1841       O  0.69869516  0.04341451  0.74839753    -0.71260
O1842       O  0.74647699  0.04455002  0.69973118    -0.83400
Zr1843     Zr  0.74676580  0.43184856  0.74403355     2.26420
Zr1844     Zr  0.69856958  0.00243003  0.79379692     2.06270
Zr1845     Zr  0.79876340  0.49949080  0.69931855     2.10050
Zr1846     Zr  0.80180070  0.49179329  0.79702551     1.78760
O1847       O  0.79539053  0.01692586  0.63593761    -0.92200
O1848       O  0.79493272  0.48454460  0.85733479    -0.40010
O1849       O  0.79800155  0.46096844  0.74671583    -0.76640
O1850       O  0.75161221  0.46114291  0.79523401    -0.95330
O1851       O  0.69796638  0.46939060  0.74746241    -0.88630
O1852       O  0.74877872  0.46970001  0.69632982    -0.91470
C1853       C  0.80945933  0.08014599  0.81057557     1.02280
C1854       C  0.81079471  0.09063913  0.69283599     1.15210
C1855       C  0.68874383  0.08773559  0.81386753     1.05990
O1856       O  0.70349535  0.49199903  0.85803319    -0.93630
O1857       O  0.68150391  0.44584772  0.81494940    -0.89370
O1858       O  0.70546454  0.40456145  0.78186773    -0.82520
C1859       C  0.68533181  0.41484866  0.80586520     1.12630
O1860       O  0.66511068  0.06976917  0.68187097    -0.95600
Zr1861     Zr  0.69548869  0.01601545  0.69639684     1.88940
O1862       O  0.71321321  0.40924826  0.70145696    -0.72250
O1863       O  0.63753535  0.00780373  0.79393798    -0.51510
O1864       O  0.63588564  0.01016855  0.70848766    -0.96190
O1865       O  0.70226489  0.03287115  0.63767068    -0.53410
O1866       O  0.68314088  0.45390410  0.67737033    -0.72770
C1867       C  0.69184128  0.42200101  0.68076169     0.99570
O1868       O  0.76896690  0.37790702  0.76858555    -0.61590
O1869       O  0.85979031  0.49235550  0.69733233    -0.56390
O1870       O  0.78781942  0.40291440  0.70677158    -0.93080
O1871       O  0.81651961  0.44381022  0.67864957    -0.91500
O1872       O  0.86195406  0.48872904  0.78449589    -0.91860
O1873       O  0.82967048  0.43918463  0.81841863    -0.90640
C1874       C  0.80984909  0.41262671  0.68499114     1.18420
H1875       H  0.81927060  0.04539935  0.74729538     0.34360
H1876       H  0.75098417  0.44504274  0.81390305     0.45210
H1877       H  0.74952576  0.45744459  0.67576160     0.38740
H1878       H  0.67976880  0.05972078  0.75070672     0.35220
H1879       H  0.81723572  0.48857379  0.86599414     0.27010
H1880       H  0.63058550  0.01010071  0.81775006     0.32940
H1881       H  0.62661552  0.00395750  0.68704591     0.38850
H1882       H  0.87209373  0.49592493  0.80515990     0.33310
H1883       H  0.86654346  0.49932337  0.67425236     0.32190
H1884       H  0.81945981  0.01519585  0.62907470     0.33910
H1885       H  0.68254649  0.02448018  0.62682265     0.32840
H1886       H  0.81727157  0.42075759  0.80905448     0.36840
H1887       H  0.79364769  0.37840767  0.76576744     0.29570
H1888       H  0.73162942  0.14251391  0.74594253     0.33800
H1889       H  0.64678516  0.06367776  0.66754586     0.36650
H1890       H  0.86280477  0.01363335  0.71079382     0.29270
H1891       H  0.76484582  0.37997468  0.79295461     0.42140
H1892       H  0.71204109  0.01211702  0.86232183     0.32190
H1893       H  0.77499686  0.00786520  0.85985755     0.39810
H1894       H  0.72471433  0.49754203  0.63286929     0.31660
H1895       H  0.63199579  0.03055769  0.78361605     0.31720
H1896       H  0.70290946  0.12358897  0.72981074     0.31990
Zr1897     Zr  0.93444898  0.24229594  0.74401177     2.17510
O1898       O  0.87956375  0.26031028  0.76799312    -0.50370
O1899       O  0.92020086  0.20482247  0.69974032    -0.73570
O1900       O  0.90516008  0.28088428  0.70460078    -0.80360
O1901       O  0.94617673  0.17779172  0.81405587    -0.82100
O1902       O  0.94434862  0.31479761  0.68121420    -0.77730
O1903       O  0.90780839  0.19703884  0.77617780    -0.89360
O1904       O  0.96927486  0.18360774  0.67589797    -0.75320
O1905       O  0.97470909  0.24767322  0.69935859    -0.84820
O1906       O  0.97554222  0.19636716  0.75048418    -0.84500
O1907       O  0.95720360  0.29727041  0.74979022    -0.71260
O1908       O  0.95804253  0.24983244  0.79761994    -0.83400
Zr1909     Zr  0.56481431  0.26589892  0.76318950     2.26420
Zr1910     Zr  0.99832495  0.30131131  0.70523791     2.06270
Zr1911     Zr  0.49991152  0.20727043  0.80122489     2.10050
Zr1912     Zr  0.51763013  0.20400123  0.70460843     1.78760
O1913       O  0.98810972  0.20691356  0.86321050    -0.92200
O1914       O  0.53333079  0.21167294  0.64572502    -0.40010
O1915       O  0.54191546  0.21110482  0.75760914    -0.76640
O1916       O  0.54198311  0.25775205  0.70935734    -0.95330
O1917       O  0.52403346  0.31178973  0.75500950    -0.88630
O1918       O  0.52362122  0.26117190  0.80726503    -0.91470
C1919       C  0.93730566  0.18726649  0.67779557     1.02280
C1920       C  0.91717431  0.17782101  0.80102432     1.15210
C1921       C  0.91432935  0.30493151  0.68449484     1.05990
O1922       O  0.50941633  0.30181297  0.64208369    -0.93630
O1923       O  0.55340294  0.32581987  0.68720294    -0.89370
O1924       O  0.59214009  0.30618114  0.72455997    -0.82520
C1925       C  0.58306092  0.32400558  0.69856462     1.12630
O1926       O  0.92733111  0.32134443  0.82538901    -0.95600
Zr1927     Zr  0.98271245  0.30392960  0.80218770     1.88940
O1928       O  0.57923526  0.30938271  0.80159153    -0.72250
O1929       O  0.98960888  0.36320430  0.70595143    -0.51510
O1930       O  0.96824284  0.36372205  0.78837896    -0.96190
O1931       O  0.97908126  0.29950058  0.86310197    -0.53410
O1932       O  0.53035695  0.33797547  0.81735380    -0.72770
C1933       C  0.56242455  0.33353436  0.81677655     0.99570
O1934       O  0.62109186  0.24408650  0.74615109    -0.61590
O1935       O  0.50960110  0.14536109  0.80283746    -0.56390
O1936       O  0.59138896  0.22974939  0.80683151    -0.93080
O1937       O  0.55331981  0.19193461  0.82529857    -0.91500
O1938       O  0.52087810  0.14286369  0.71721507    -0.91860
O1939       O  0.57229983  0.17775234  0.68860739    -0.90640
C1940       C  0.58253258  0.20385813  0.82477011     1.18420
H1941       H  0.96579062  0.17450178  0.74946052     0.34360
H1942       H  0.55938708  0.25923086  0.69214472     0.45210
H1943       H  0.53366194  0.26237618  0.82874175     0.38740
H1944       H  0.93972431  0.31514093  0.74742108     0.35220
H1945       H  0.53017187  0.18933218  0.63578965     0.27010
H1946       H  0.98770034  0.37034856  0.68216607     0.32940
H1947       H  0.97442522  0.37634367  0.80807466     0.38850
H1948       H  0.51518911  0.13228037  0.69618022     0.33310
H1949       H  0.50403338  0.13829814  0.82618564     0.32190
H1950       H  0.98916220  0.18283473  0.87135814     0.33870
H1951       H  0.98979515  0.31983108  0.87084392     0.32840
H1952       H  0.58857800  0.19289099  0.69760272     0.36840
H1953       H  0.62104066  0.21906367  0.75002378     0.29570
H1954       H  0.86332175  0.25600992  0.75071372     0.33800
H1955       H  0.93065962  0.34096071  0.83965038     0.36650
H1956       H  0.99649303  0.13301817  0.78981817     0.29270
H1957       H  0.62213912  0.24682789  0.72151601     0.42140
H1958       H  0.98854286  0.28728677  0.63680750     0.32190
H1959       H  0.00805264  0.22541718  0.63860893     0.39810
H1960       H  0.48815745  0.27932861  0.86592278     0.31660
H1961       H  0.96672957  0.36747068  0.71576579     0.31720
H1962       H  0.87966303  0.28549008  0.76884278     0.31990
Zr1963     Zr  0.75015880  0.25103761  0.56767083     2.17510
O1964       O  0.72271854  0.22854136  0.61825430    -0.50370
O1965       O  0.78755964  0.28733712  0.59461391    -0.73570
O1966       O  0.78532541  0.20770769  0.59557479    -0.80360
O1967       O  0.68053045  0.31844824  0.55663032    -0.82100
O1968       O  0.81869638  0.18091525  0.55600269    -0.77730
O1969       O  0.70954662  0.28889399  0.59693871    -0.89360
O1970       O  0.81608049  0.31424699  0.55265083    -0.75320
O1971       O  0.80032076  0.24813485  0.53351545    -0.84820
O1972       O  0.74897219  0.30147830  0.53319257    -0.84500
O1973       O  0.74869524  0.19957898  0.53678546    -0.71260
O1974       O  0.70001965  0.24951375  0.53675808    -0.83400
Zr1975     Zr  0.75197698  0.24534790  0.93325493     2.26420
Zr1976     Zr  0.79836503  0.19805962  0.50138145     2.06270
Zr1977     Zr  0.69970962  0.29971525  0.50169278     2.10050
Zr1978     Zr  0.80247544  0.29567226  0.99805811     1.78760
O1979       O  0.63878419  0.29905311  0.50399643    -0.92200
O1980       O  0.86316671  0.28523986  0.99842196    -0.40010
O1981       O  0.75384557  0.29631190  0.96473628    -0.76640
O1982       O  0.80179668  0.24583926  0.96521942    -0.95330
O1983       O  0.75261233  0.19502620  0.96799588    -0.88630
O1984       O  0.70186975  0.24870273  0.96743989    -0.91470
C1985       C  0.80929439  0.30800629  0.58365926     1.02280
C1986       C  0.68712690  0.31143238  0.58732194     1.15210
C1987       C  0.80891642  0.18627420  0.58631522     1.05990
O1988       O  0.86226869  0.19597356  0.99639403    -0.93630
O1989       O  0.82026511  0.17264671  0.94708887    -0.89370
O1990       O  0.79184866  0.20347900  0.90697171    -0.82520
C1991       C  0.81357887  0.17989625  0.91644509     1.12630
O1992       O  0.67509847  0.17263800  0.55452108    -0.95600
Zr1993     Zr  0.69965719  0.19920732  0.50440620     1.88940
O1994       O  0.71510463  0.20919562  0.90552511    -0.72250
O1995       O  0.79873148  0.13601869  0.50600333    -0.51510
O1996       O  0.71192435  0.13771247  0.50354725    -0.96190
O1997       O  0.63864154  0.20702873  0.50782865    -0.53410
O1998       O  0.68618805  0.18217992  0.94718117    -0.72770
C1999       C  0.69317110  0.18862677  0.91622730     0.99570
O2000       O  0.77973765  0.27067181  0.88420517    -0.61590
O2001       O  0.70319613  0.36076288  0.99589716    -0.56390
O2002       O  0.71423597  0.28756255  0.90466753    -0.93080
O2003       O  0.68668722  0.31916086  0.94482866    -0.91500
O2004       O  0.79267283  0.35747637  0.99528892    -0.91860
O2005       O  0.83104317  0.32194773  0.95014659    -0.90640
C2006       C  0.69298094  0.31158240  0.91421582     1.18420
H2007       H  0.74816992  0.32173651  0.54636303     0.34360
H2008       H  0.82147404  0.24472718  0.95051708     0.45210
H2009       H  0.68222635  0.25027063  0.95397819     0.38740
H2010       H  0.74901897  0.17989461  0.55181574     0.35220
H2011       H  0.87181196  0.30749569  0.00380775     0.27010
H2012       H  0.82231067  0.12857366  0.51041419     0.32940
H2013       H  0.69204561  0.12849526  0.49371573     0.38850
H2014       H  0.81292668  0.36642292  0.00464415     0.33310
H2015       H  0.67985805  0.36852162  0.00215052     0.32190
H2016       H  0.63085885  0.32330312  0.50121678     0.33870
H2017       H  0.63047420  0.18621291  0.49822869     0.32840
H2018       H  0.82022097  0.31319099  0.93053931     0.36840
H2019       H  0.77673950  0.29562642  0.88714271     0.29570
H2020       H  0.73852000  0.23116694  0.63638021     0.33800
H2021       H  0.66172250  0.15418471  0.54664210     0.36650
H2022       H  0.71246091  0.36816900  0.51764578     0.29270
H2023       H  0.80400414  0.26552112  0.88729682     0.42140
H2024       H  0.86648609  0.20816770  0.51611037     0.32190
H2025       H  0.86429232  0.27304755  0.51566877     0.39810
H2026       H  0.63664371  0.22519087  0.98607959     0.31660
H2027       H  0.78624478  0.13100788  0.52716304     0.31720
H2028       H  0.72245179  0.20361428  0.61524798     0.31990
Zr2029     Zr  0.50350715  0.00937358  0.93146066     2.17510
O2030       O  0.99939823  0.50274749  0.88107821    -0.50370
O2031       O  0.54211228  0.04881719  0.90595747    -0.73570
O2032       O  0.96390859  0.05326614  0.91149035    -0.80360
O2033       O  0.56676722  0.43234391  0.94858425    -0.82100
O2034       O  0.94499057  0.08624860  0.95463736    -0.77730
O2035       O  0.54693171  0.47206048  0.91056007    -0.89360
O2036       O  0.56791396  0.07266706  0.94839420    -0.75320
O2037       O  0.50060097  0.05612758  0.96832785    -0.84820
O2038       O  0.55140942  0.00295509  0.96565821    -0.84500
O2039       O  0.95369987  0.00552959  0.96586861    -0.71260
O2040       O  0.50158165  0.46050670  0.96634178    -0.83400
Zr2041     Zr  0.99199951  0.49398283  0.56556616     2.26420
Zr2042     Zr  0.94804059  0.05168514  0.50453031     2.06270
Zr2043     Zr  0.54933106  0.45178791  0.49935857     2.10050
Zr2044     Zr  0.54718398  0.05243278  0.50639503     1.78760
O2045       O  0.54285576  0.38854984  0.00100584    -0.92200
O2046       O  0.53839368  0.11412190  0.51006283    -0.40010
O2047       O  0.54491781  0.49979925  0.53462713    -0.76640
O2048       O  0.99583638  0.04769024  0.53872704    -0.95330
O2049       O  0.94488447  0.49767356  0.53049229    -0.88630
O2050       O  0.99752365  0.44559014  0.53108555    -0.91470
C2051       C  0.56284145  0.06901886  0.91726571     1.02280
C2052       C  0.56436284  0.44444081  0.91858373     1.15210
C2053       C  0.94711653  0.07938187  0.92382626     1.05990
O2054       O  0.94923762  0.11362078  0.50338301    -0.93630
O2055       O  0.93025837  0.07129484  0.55939716    -0.89370
O2056       O  0.95346883  0.03545150  0.59884792    -0.82520
C2057       C  0.93489821  0.06172452  0.58987430     1.12630
O2058       O  0.92588232  0.43709390  0.94535385    -0.95600
Zr2059     Zr  0.94994613  0.45551679  0.99647830     1.88940
O2060       O  0.95259042  0.45595653  0.59179862    -0.72250
O2061       O  0.88711983  0.05142082  0.51020637    -0.51510
O2062       O  0.89031875  0.47224116  0.99495424    -0.96190
O2063       O  0.95709902  0.39414284  0.98825430    -0.53410
O2064       O  0.92981832  0.42859595  0.54968957    -0.72770
C2065       C  0.93324090  0.43427356  0.58071335     0.99570
O2066       O  0.51678179  0.01611579  0.62076501    -0.61590
O2067       O  0.61023070  0.45245668  0.50067650    -0.56390
O2068       O  0.52877453  0.45343096  0.59358607    -0.93080
O2069       O  0.56645515  0.43227921  0.55453422    -0.91500
O2070       O  0.60730674  0.03830519  0.50763899    -0.91860
O2071       O  0.57256905  0.07531205  0.55469094    -0.90640
C2072       C  0.55487397  0.43487969  0.58471355     1.18420
H2073       H  0.57198128  0.00266281  0.95227095     0.34360
H2074       H  0.99506301  0.06632476  0.55397757     0.45210
H2075       H  0.99793119  0.42458885  0.54425682     0.38740
H2076       H  0.93491571  0.00802256  0.95128066     0.35220
H2077       H  0.56040532  0.12310248  0.50356652     0.27010
H2078       H  0.87893796  0.07514125  0.50468960     0.32940
H2079       H  0.88032891  0.44177135  0.50510260     0.38850
H2080       H  0.61783750  0.05915152  0.49900160     0.33310
H2081       H  0.61828996  0.42820899  0.49910859     0.32190
H2082       H  0.56623492  0.37905183  0.00293750     0.33870
H2083       H  0.93611302  0.38480246  0.99746680     0.32840
H2084       H  0.56346373  0.06205632  0.57397414     0.36840
H2085       H  0.54136875  0.01272212  0.61707336     0.29570
H2086       H  0.00362500  0.52398711  0.86808144     0.33800
H2087       H  0.90705935  0.42298144  0.95257602     0.36650
H2088       H  0.61582561  0.45608571  0.98382503     0.29270
H2089       H  0.51286492  0.04124783  0.61972867     0.42140
H2090       H  0.96433741  0.12068494  0.01719783     0.32190
H2091       H  0.52699949  0.11868775  0.98639768     0.39810
H2092       H  0.97617187  0.38110953  0.51035395     0.31660
H2093       H  0.88937269  0.05075035  0.97221008     0.31720
H2094       H  0.97481843  0.50075301  0.88080071     0.31990
C2095       C  0.87215293  0.36888505  0.61983297    -0.01520
C2096       C  0.87642579  0.11668640  0.86733067    -0.01520
C2097       C  0.62494382  0.37482400  0.87368419    -0.01520
C2098       C  0.62731622  0.13170149  0.87893249    -0.01520
C2099       C  0.87669661  0.13154964  0.63363886    -0.01520
C2100       C  0.62557495  0.37992724  0.62904374    -0.01520
C2101       C  0.57245462  0.41430944  0.61082311    -0.15470
C2102       C  0.60537026  0.40530788  0.60691012    -0.30640
H2103       H  0.55817511  0.40617269  0.63285734     0.13550
H2104       H  0.61912149  0.41748754  0.58634775     0.14130
C2105       C  0.91762456  0.08246233  0.61636174    -0.15470
C2106       C  0.89928710  0.11144717  0.60870736    -0.30640
H2107       H  0.91873917  0.07327942  0.64214731     0.13550
H2108       H  0.89884946  0.11996195  0.58264134     0.14130
C2109       C  0.60355186  0.11231722  0.90251318    -0.15470
C2110       C  0.58275852  0.08896640  0.89265913    -0.30640
H2111       H  0.60381737  0.11670248  0.92912819     0.13550
H2112       H  0.58127988  0.08360288  0.86634489     0.14130
C2113       C  0.59874907  0.39414094  0.89679885    -0.15470
C2114       C  0.58425964  0.42598305  0.89165613    -0.30640
H2115       H  0.59147225  0.38063678  0.91975694     0.13550
H2116       H  0.58791138  0.43938721  0.86789012     0.14130
C2117       C  0.90365588  0.09262917  0.88309019    -0.15470
C2118       C  0.92722377  0.10340356  0.90268567    -0.30640
H2119       H  0.90368999  0.06524392  0.87965657     0.13550
H2120       H  0.92673689  0.13014008  0.90895210     0.14130
C2121       C  0.89326495  0.39051124  0.59561046    -0.15470
C2122       C  0.91364452  0.41427657  0.60537646    -0.30640
H2123       H  0.89174248  0.38700272  0.56893629     0.13550
H2124       H  0.91591845  0.41887805  0.63177599     0.14130
C2125       C  0.66759131  0.33083442  0.61332549    -0.15470
C2126       C  0.64786070  0.35851300  0.60490882    -0.30640
H2127       H  0.66959295  0.32268310  0.63933336     0.13550
H2128       H  0.64679829  0.36549169  0.57847759     0.14130
C2129       C  0.64969892  0.35579674  0.89715499    -0.15470
C2130       C  0.67348767  0.33139544  0.88839709    -0.30640
H2131       H  0.64691309  0.36154186  0.92351626     0.13550
H2132       H  0.67717151  0.32439518  0.86251702     0.14130
C2133       C  0.83257140  0.16076753  0.88964796    -0.15470
C2134       C  0.85421832  0.13343706  0.89519734    -0.30640
H2135       H  0.82985074  0.17090542  0.86438338     0.13550
H2136       H  0.85755488  0.12423766  0.92077800     0.14130
C2137       C  0.85794522  0.15963414  0.61330881    -0.15470
C2138       C  0.82447705  0.16466417  0.61229465    -0.30640
H2139       H  0.87307162  0.17541223  0.59667631     0.13550
H2140       H  0.80751754  0.15159574  0.62911439     0.14130
C2141       C  0.85276567  0.34592500  0.59822194    -0.15470
C2142       C  0.82743456  0.32651676  0.60831724    -0.30640
H2143       H  0.85963987  0.34557395  0.57178465     0.13550
H2144       H  0.81896089  0.32490108  0.63414725     0.14130
C2145       C  0.67444465  0.17109485  0.89131137    -0.15470
C2146       C  0.64812582  0.15288099  0.90109117    -0.30640
H2147       H  0.68212584  0.17366173  0.86527971     0.13550
H2148       H  0.64164764  0.15260009  0.92761583     0.14130
C2149       C  0.60701669  0.34930368  0.85364056    -0.15470
C2150       C  0.58079949  0.35860777  0.83460178    -0.30640
H2151       H  0.61494591  0.32237081  0.85555678     0.13550
H2152       H  0.57103538  0.38500307  0.83405644     0.14130
C2153       C  0.60264822  0.35650273  0.64892224    -0.15470
C2154       C  0.60814324  0.34429063  0.68029092    -0.30640
H2155       H  0.58116849  0.34811605  0.63608886     0.13550
H2156       H  0.63092748  0.34950996  0.69272685     0.14130
C2157       C  0.89475926  0.14466224  0.84815657    -0.15470
C2158       C  0.89353687  0.15324919  0.81549764    -0.30640
H2159       H  0.91074114  0.15931832  0.86298050     0.13550
H2160       H  0.87637920  0.14187343  0.79930603     0.14130
C2161       C  0.60727950  0.18647671  0.84691357    -0.15470
C2162       C  0.60574663  0.15282186  0.85431519    -0.30640
H2163       H  0.62616017  0.20153764  0.85703251     0.13550
H2164       H  0.58774220  0.13887894  0.84119154     0.14130
C2165       C  0.88851620  0.32288141  0.66389854    -0.15470
C2166       C  0.89653524  0.34805990  0.64196784    -0.30640
H2167       H  0.86312317  0.31498642  0.66689066     0.13550
H2168       H  0.92282123  0.35373299  0.63927537     0.14130
C2169       C  0.91952583  0.17069145  0.65193306    -0.15470
C2170       C  0.89700016  0.14765141  0.65977954    -0.30640
H2171       H  0.92618757  0.17636221  0.62596106     0.13550
H2172       H  0.89257827  0.14109007  0.68605843     0.14130
C2173       C  0.64432181  0.39920327  0.85078099    -0.15470
C2174       C  0.66530264  0.38956609  0.82496586    -0.30640
H2175       H  0.64238037  0.42598289  0.85687376     0.13550
H2176       H  0.66801144  0.36301572  0.81807604     0.14130
C2177       C  0.85312363  0.10714044  0.65090773    -0.15470
C2178       C  0.83201672  0.11591062  0.67661764    -0.30640
H2179       H  0.85391920  0.08112216  0.64219737     0.13550
H2180       H  0.83055284  0.14180455  0.68563172     0.14130
C2181       C  0.85592356  0.09412801  0.84596237    -0.15470
C2182       C  0.82832588  0.10431618  0.82939163    -0.30640
H2183       H  0.86365335  0.06719465  0.84458852     0.13550
H2184       H  0.81967841  0.13095137  0.82867933     0.14130
C2185       C  0.66956242  0.11381644  0.83351330    -0.15470
C2186       C  0.64989079  0.10560669  0.86016342    -0.30640
H2187       H  0.67032392  0.14013747  0.82471903     0.13550
H2188       H  0.64904973  0.07887020  0.86789401     0.14130
C2189       C  0.82921152  0.38589868  0.66619088    -0.15470
C2190       C  0.84892858  0.39387588  0.63950727    -0.30640
H2191       H  0.82760545  0.35984929  0.67518374     0.13550
H2192       H  0.84906767  0.42065983  0.63174521     0.14130
C2193       C  0.64411153  0.40194183  0.65207677    -0.15470
C2194       C  0.67681691  0.39826658  0.65873633    -0.30640
H2195       H  0.62891345  0.42171887  0.66497200     0.13550
H2196       H  0.69272391  0.37736733  0.64901435     0.14130
Zr2197     Zr  0.75899040  0.56186421  0.26076055     2.17510
O2198       O  0.74352609  0.61980401  0.24081928    -0.50370
O2199       O  0.79732405  0.58019695  0.30299405    -0.73570
O2200       O  0.71789191  0.59130317  0.29727658    -0.80360
O2201       O  0.81944091  0.55116777  0.18745517    -0.82100
O2202       O  0.68610285  0.55132556  0.32250662    -0.77730
O2203       O  0.79360661  0.59179917  0.22008085    -0.89360
O2204       O  0.81391406  0.53333781  0.33413996    -0.75320
O2205       O  0.75528072  0.52343571  0.30744183    -0.84820
O2206       O  0.80687986  0.52318131  0.25624745    -0.84500
O2207       O  0.70681635  0.53486411  0.25445520    -0.71260
O2208       O  0.75337229  0.53387938  0.20857577    -0.83400
Zr2209     Zr  0.74696816  0.93073402  0.24620187     2.26420
Zr2210     Zr  0.70418998  0.49603574  0.30142444     2.06270
Zr2211     Zr  0.79795415  0.99859780  0.20074301     2.10050
Zr2212     Zr  0.79964143  0.99381826  0.29877754     1.78760
O2213       O  0.79939652  0.50106243  0.14421941    -0.92200
O2214       O  0.79142252  0.99122117  0.35925704    -0.40010
O2215       O  0.79732129  0.96137801  0.24913941    -0.76640
O2216       O  0.75045621  0.96148794  0.29690277    -0.95330
O2217       O  0.69765713  0.96759701  0.24838422    -0.88630
O2218       O  0.74870791  0.96750149  0.19774152    -0.91470
C2219       C  0.81204733  0.56549562  0.32817423     1.02280
C2220       C  0.81357996  0.58229493  0.19602248     1.15210
C2221       C  0.69417892  0.58219620  0.31727928     1.05990
O2222       O  0.70265557  0.99083463  0.35825446    -0.93630
O2223       O  0.67906453  0.94533435  0.31429576    -0.89370
O2224       O  0.70551500  0.90343876  0.28362338    -0.82520
C2225       C  0.68387488  0.91411879  0.30614738     1.12630
O2226       O  0.67672862  0.55624672  0.18035604    -0.95600
Zr2227     Zr  0.70291620  0.50370428  0.20401131     1.88940
O2228       O  0.71124609  0.90576901  0.20671137    -0.72250
O2229       O  0.64320448  0.50254222  0.29995540    -0.51510
O2230       O  0.64294930  0.50735818  0.21775424    -0.96190
O2231       O  0.71051859  0.50992310  0.14354834    -0.53410
O2232       O  0.68248814  0.94975913  0.18032148    -0.72770
C2233       C  0.68983643  0.91779260  0.18565151     0.99570
O2234       O  0.77153818  0.87857690  0.27213188    -0.61590
O2235       O  0.85894528  0.99099648  0.19921738    -0.56390
O2236       O  0.78772540  0.90185543  0.20821344    -0.93080
O2237       O  0.81641388  0.94303379  0.18053036    -0.91500
O2238       O  0.86001313  0.99008542  0.28756393    -0.91860
O2239       O  0.82732800  0.94304337  0.32408615    -0.90640
C2240       C  0.80981326  0.91179376  0.18652465     1.18420
H2241       H  0.82732488  0.53514514  0.25635894     0.34360
H2242       H  0.74987987  0.94581430  0.31591763     0.45210
H2243       H  0.74962419  0.95459854  0.17755922     0.38740
H2244       H  0.68822805  0.55170501  0.25545750     0.35220
H2245       H  0.81367260  0.99536070  0.36798505     0.27010
H2246       H  0.63565706  0.50640973  0.32339407     0.32940
H2247       H  0.63246266  0.49700965  0.19875880     0.38850
H2248       H  0.86967968  0.99915541  0.30767944     0.33310
H2249       H  0.86599245  0.99881667  0.17648176     0.32190
H2250       H  0.82288612  0.49663560  0.13610729     0.33910
H2251       H  0.69037207  0.50053907  0.13440869     0.32840
H2252       H  0.81699776  0.92375610  0.31380825     0.36840
H2253       H  0.79608912  0.88060613  0.26967646     0.29570
H2254       H  0.74751049  0.63487167  0.25949574     0.33800
H2255       H  0.65806119  0.54916737  0.16699559     0.36650
H2256       H  0.86967399  0.50969709  0.21493009     0.29270
H2257       H  0.76673462  0.88099226  0.29636643     0.42140
H2258       H  0.71693073  0.50836540  0.36948805     0.32190
H2259       H  0.77789515  0.48256715  0.37014030     0.39810
H2260       H  0.72425090  0.99135943  0.13362032     0.31660
H2261       H  0.63826354  0.52468465  0.28817751     0.31720
H2262       H  0.71886686  0.62079609  0.23869401     0.31990
Zr2263     Zr  0.93358760  0.74657321  0.24660435     2.17510
O2264       O  0.88143964  0.77248290  0.27011809    -0.50370
O2265       O  0.90851862  0.70441095  0.21415268    -0.73570
O2266       O  0.90496239  0.78318461  0.20501551    -0.80360
O2267       O  0.94688885  0.68268889  0.31799524    -0.82100
O2268       O  0.94483270  0.81354677  0.17800235    -0.77730
O2269       O  0.90596551  0.71139158  0.28855054    -0.89360
O2270       O  0.95027803  0.67675409  0.18381373    -0.75320
O2271       O  0.96837702  0.74663215  0.19722682    -0.84820
O2272       O  0.96973218  0.69624498  0.24986824    -0.84500
O2273       O  0.96261129  0.79834463  0.24804192    -0.71260
O2274       O  0.96406101  0.75118572  0.29673577    -0.83400
Zr2275     Zr  0.56968614  0.75710980  0.25200638     2.26420
Zr2276     Zr  0.99897889  0.79686437  0.19944046     2.06270
Zr2277     Zr  0.50440198  0.70349557  0.29699322     2.10050
Zr2278     Zr  0.51505275  0.69899897  0.19919163     1.78760
O2279       O  0.99761301  0.70533507  0.35931852    -0.92200
O2280       O  0.51283736  0.70475456  0.13861377    -0.40010
O2281       O  0.54321278  0.70406854  0.25013133    -0.76640
O2282       O  0.54219020  0.75159245  0.20035329    -0.95330
O2283       O  0.53108152  0.80536556  0.24740644    -0.88630
O2284       O  0.53250827  0.75510380  0.29980477    -0.91470
C2285       C  0.91918155  0.68254453  0.19265211     1.02280
C2286       C  0.91608470  0.68969804  0.31107298     1.15210
C2287       C  0.91444007  0.80555697  0.18322821     1.05990
O2288       O  0.50894894  0.79660490  0.13675443    -0.93630
O2289       O  0.55465817  0.82330246  0.18162925    -0.89370
O2290       O  0.59434664  0.80222143  0.21739923    -0.82520
C2291       C  0.58433182  0.82188665  0.19303421     1.12630
O2292       O  0.94335507  0.82868774  0.32104015    -0.95600
Zr2293     Zr  0.99486126  0.80178423  0.29701523     1.88940
O2294       O  0.59100037  0.79383897  0.29206718    -0.72250
O2295       O  0.99391942  0.85895603  0.20095523    -0.51510
O2296       O  0.99222676  0.86268583  0.28310631    -0.96190
O2297       O  0.99128862  0.79635630  0.35777688    -0.53410
O2298       O  0.54657487  0.82393509  0.31603734    -0.72770
C2299       C  0.57824353  0.81629360  0.31192991     0.99570
O2300       O  0.62304149  0.73665176  0.22630311    -0.61590
O2301       O  0.51056023  0.64136122  0.30025130    -0.56390
O2302       O  0.59925230  0.71568133  0.28902839    -0.93080
O2303       O  0.55914664  0.68544666  0.31600451    -0.91500
O2304       O  0.53028557  0.63911891  0.21153994    -0.91860
O2305       O  0.56774886  0.67968986  0.17168636    -0.90640
C2306       C  0.58971593  0.69255884  0.31010598     1.18420
H2307       H  0.95729408  0.67586250  0.25143198     0.34360
H2308       H  0.55825437  0.75275708  0.18184859     0.45210
H2309       H  0.54455807  0.75516853  0.32027427     0.38740
H2310       H  0.94673032  0.81781476  0.24679082     0.35220
H2311       H  0.51234573  0.68107017  0.13088619     0.27010
H2312       H  0.99213686  0.86655436  0.17728080     0.32940
H2313       H  0.00122536  0.87347329  0.30267069     0.38850
H2314       H  0.52449171  0.62702370  0.19137959     0.33310
H2315       H  0.50548521  0.63530436  0.32396143     0.32190
H2316       H  0.00184609  0.68160965  0.36784895     0.33870
H2317       H  0.00008179  0.81762761  0.36574571     0.32840
H2318       H  0.58508151  0.68405670  0.18784352     0.36840
H2319       H  0.62318431  0.71145729  0.22836401     0.29570
H2320       H  0.86378150  0.76628090  0.25502969     0.33800
H2321       H  0.95039139  0.84784471  0.33418157     0.36650
H2322       H  0.98796574  0.63160727  0.28804183     0.29270
H2323       H  0.62073749  0.74155415  0.20209852     0.42140
H2324       H  0.98742075  0.78139939  0.13180988     0.32190
H2325       H  0.98524758  0.71710982  0.13480906     0.39810
H2326       H  0.50530013  0.77947217  0.36210037     0.31660
H2327       H  0.97140621  0.86456423  0.21108824     0.31720
H2328       H  0.88313050  0.79738315  0.26648447     0.31990
Zr2329     Zr  0.75247741  0.75353273  0.06416482     2.17510
O2330       O  0.72864211  0.72735555  0.11480688    -0.50370
O2331       O  0.78397390  0.79715003  0.08845626    -0.73570
O2332       O  0.79623986  0.71956182  0.09327922    -0.80360
O2333       O  0.68242408  0.81960832  0.05140189    -0.82100
O2334       O  0.82045192  0.68289891  0.05546416    -0.77730
O2335       O  0.71071845  0.79016755  0.09240978    -0.89360
O2336       O  0.81645141  0.81947699  0.04652761    -0.75320
O2337       O  0.80223579  0.75003023  0.02996578    -0.84820
O2338       O  0.74990593  0.80258007  0.02764309    -0.84500
O2339       O  0.74998732  0.70095715  0.03535434    -0.71260
O2340       O  0.70210327  0.75013428  0.03329622    -0.83400
Zr2341     Zr  0.74492363  0.74847915  0.43309207     2.26420
Zr2342     Zr  0.79974600  0.69856552  0.00042711     2.06270
Zr2343     Zr  0.70068698  0.79898460  0.99642028     2.10050
Zr2344     Zr  0.79732265  0.79867791  0.49699011     1.78760
O2345       O  0.63990695  0.79641145  0.99989111    -0.92200
O2346       O  0.85809811  0.78858260  0.49520097    -0.40010
O2347       O  0.74783601  0.79902089  0.46481931    -0.76640
O2348       O  0.79589570  0.74933607  0.46342139    -0.95330
O2349       O  0.74759066  0.69776306  0.46723383    -0.88630
O2350       O  0.69575994  0.75049553  0.46843966    -0.91470
C2351       C  0.80649553  0.81686878  0.07725959     1.02280
C2352       C  0.68878258  0.81284590  0.08226795     1.15210
C2353       C  0.81688997  0.69468267  0.08502731     1.05990
O2354       O  0.85794665  0.70074385  0.49156653    -0.93630
O2355       O  0.81225508  0.67806854  0.44335925    -0.89370
O2356       O  0.77852201  0.70391780  0.40434038    -0.82520
C2357       C  0.80216132  0.68241566  0.41334347     1.12630
O2358       O  0.67590730  0.67382826  0.05259781    -0.95600
Zr2359     Zr  0.70111760  0.69899069  0.00206952     1.88940
O2360       O  0.70202252  0.71764868  0.40747356    -0.72250
O2361       O  0.79674232  0.63689495  0.00637352    -0.51510
O2362       O  0.71378116  0.63753546  0.00347249    -0.96190
O2363       O  0.64017031  0.70803335  0.00582774    -0.53410
O2364       O  0.67951525  0.68381573  0.44842447    -0.72770
C2365       C  0.68254505  0.69454913  0.41800959     0.99570
O2366       O  0.77393554  0.77005667  0.38290932    -0.61590
O2367       O  0.69790135  0.86220245  0.49778222    -0.56390
O2368       O  0.71189195  0.79491992  0.40588937    -0.93080
O2369       O  0.67958665  0.82131206  0.44647411    -0.91500
O2370       O  0.78755279  0.86049221  0.49531717    -0.91860
O2371       O  0.82445167  0.82577922  0.44865911    -0.90640
C2372       C  0.68897740  0.81698260  0.41585641     1.18420
H2373       H  0.74857087  0.82353285  0.03977002     0.34360
H2374       H  0.81503579  0.74855426  0.44801308     0.45210
H2375       H  0.67554158  0.75242816  0.45583500     0.38740
H2376       H  0.75053497  0.68202947  0.05130599     0.35220
H2377       H  0.86681407  0.81070534  0.50092609     0.27010
H2378       H  0.82027282  0.62819438  0.00914186     0.32940
H2379       H  0.69388146  0.62774583  0.99425882     0.38850
H2380       H  0.80813220  0.86923360  0.50419356     0.33310
H2381       H  0.67477364  0.86982785  0.50493222     0.32190
H2382       H  0.63122512  0.82046875  0.99749914     0.33870
H2383       H  0.63150553  0.68684051  0.99752201     0.32840
H2384       H  0.81431742  0.81592579  0.42919862     0.36840
H2385       H  0.77302615  0.79515657  0.38501400     0.29570
H2386       H  0.74267882  0.73423315  0.13306419     0.33800
H2387       H  0.66259747  0.65514757  0.04509833     0.36650
H2388       H  0.71219928  0.86839744  0.01004319     0.29270
H2389       H  0.79791089  0.76309787  0.38574665     0.42140
H2390       H  0.86741588  0.71174386  0.01369184     0.32190
H2391       H  0.86518379  0.77615482  0.01320280     0.39810
H2392       H  0.63152704  0.72570113  0.48998697     0.31660
H2393       H  0.78564944  0.63288580  0.02847720     0.31720
H2394       H  0.73394855  0.70254437  0.11273158     0.31990
Zr2395     Zr  0.50594800  0.50738893  0.43169982     2.17510
O2396       O  0.98768255  0.99120164  0.37999230    -0.50370
O2397       O  0.54361723  0.54842740  0.40696882    -0.73570
O2398       O  0.96298376  0.54205885  0.40387970    -0.80360
O2399       O  0.56675006  0.93542161  0.44758629    -0.82100
O2400       O  0.92866273  0.56724501  0.44345504    -0.77730
O2401       O  0.53954956  0.96842945  0.40823122    -0.89360
O2402       O  0.56831492  0.57424918  0.44890572    -0.75320
O2403       O  0.50060934  0.55600210  0.46607990    -0.84820
O2404       O  0.55306596  0.50352312  0.46692174    -0.84500
O2405       O  0.95313480  0.50098259  0.46305906    -0.71260
O2406       O  0.50015100  0.95749826  0.46726706    -0.83400
Zr2407     Zr  0.99510107  0.99382849  0.06767103     2.26420
Zr2408     Zr  0.95512345  0.55340237  0.00701192     2.06270
Zr2409     Zr  0.54712434  0.95049067  0.99674939     2.10050
Zr2410     Zr  0.55144498  0.54821595  0.01673650     1.78760
O2411       O  0.54550413  0.89124892  0.50205900    -0.92200
O2412       O  0.54616095  0.61038866  0.01566935    -0.40010
O2413       O  0.54468228  0.99712909  0.03364239    -0.76640
O2414       O  0.00029828  0.54534649  0.04445401    -0.95330
O2415       O  0.94739518  0.99912596  0.03375320    -0.88630
O2416       O  0.99914224  0.94655066  0.03148766    -0.91470
C2417       C  0.56370497  0.56952674  0.41795311     1.02280
C2418       C  0.56061713  0.94405980  0.41718885     1.15210
C2419       C  0.93742453  0.56145130  0.41290192     1.05990
O2420       O  0.95175735  0.61495649  0.01327701    -0.93630
O2421       O  0.93476666  0.57024171  0.06095771    -0.89370
O2422       O  0.95507913  0.53284944  0.10062468    -0.82520
C2423       C  0.93744088  0.55962858  0.09120650     1.12630
O2424       O  0.92695179  0.92772693  0.44910000    -0.95600
Zr2425     Zr  0.94808317  0.95182232  0.49916914     1.88940
O2426       O  0.95513367  0.95431007  0.09179745    -0.72250
O2427       O  0.89457943  0.54994311  0.00453295    -0.51510
O2428       O  0.88779831  0.96429366  0.49586854    -0.96190
O2429       O  0.95629861  0.88976833  0.49748887    -0.53410
O2430       O  0.92913767  0.93063493  0.04930593    -0.72770
C2431       C  0.93386691  0.93457941  0.08037147     0.99570
O2432       O  0.51011968  0.51058677  0.12512669    -0.61590
O2433       O  0.60804270  0.95042316  0.99860834    -0.56390
O2434       O  0.52785356  0.94868867  0.09175242    -0.93080
O2435       O  0.56451847  0.92868513  0.05121029    -0.91500
O2436       O  0.60917404  0.53116682  0.02994730    -0.91860
O2437       O  0.56815571  0.57172992  0.06876797    -0.90640
C2438       C  0.55350957  0.93026204  0.08168021     1.18420
H2439       H  0.57389040  0.50339584  0.45394519     0.34360
H2440       H  0.99933186  0.56310516  0.06067610     0.45210
H2441       H  0.99961309  0.92522910  0.04415051     0.38740
H2442       H  0.93480745  0.50149599  0.44794009     0.35220
H2443       H  0.56952784  0.61757204  0.01508508     0.27010
H2444       H  0.88540719  0.57367041  0.00753293     0.32940
H2445       H  0.88101586  0.94498897  0.00390191     0.38850
H2446       H  0.62198790  0.55149011  0.02420793     0.33310
H2447       H  0.61596728  0.92637685  0.99518043     0.32190
H2448       H  0.56926515  0.88261049  0.50258772     0.33870
H2449       H  0.93526531  0.88103042  0.50726344     0.32840
H2450       H  0.56218727  0.55449344  0.08613974     0.36840
H2451       H  0.53487498  0.50738225  0.12338218     0.29570
H2452       H  0.98941943  0.01154048  0.36497049     0.33800
H2453       H  0.90842730  0.91343765  0.45680552     0.36650
H2454       H  0.61533495  0.96434448  0.48183167     0.29270
H2455       H  0.50593175  0.53569638  0.12459596     0.42140
H2456       H  0.95947047  0.61756672  0.47524356     0.32190
H2457       H  0.52293946  0.61982359  0.48695930     0.39810
H2458       H  0.97565066  0.88352764  0.01012354     0.31660
H2459       H  0.88199631  0.53559676  0.48144952     0.31720
H2460       H  0.96346713  0.98703634  0.38156196     0.31990
C2461       C  0.87198723  0.86986168  0.11983016    -0.01520
C2462       C  0.87224793  0.62486529  0.36978243    -0.01520
C2463       C  0.62016404  0.87572867  0.37227395    -0.01520
C2464       C  0.62919626  0.62885235  0.37666128    -0.01520
C2465       C  0.87378502  0.62565366  0.13161035    -0.01520
C2466       C  0.62738481  0.87992767  0.12517918    -0.01520
C2467       C  0.57169674  0.90918362  0.10682304    -0.15470
C2468       C  0.60519392  0.90403742  0.10367967    -0.30640
H2469       H  0.55764546  0.89843271  0.12784252     0.13550
H2470       H  0.61806317  0.91875967  0.08421744     0.14130
C2471       C  0.91888186  0.58028622  0.11643161    -0.15470
C2472       C  0.89505238  0.60422503  0.10706036    -0.30640
H2473       H  0.92397122  0.57552001  0.14265584     0.13550
H2474       H  0.89015550  0.60791635  0.08061386     0.14130
C2475       C  0.60701279  0.61002915  0.40204249    -0.15470
C2476       C  0.58322621  0.58931365  0.39308766    -0.30640
H2477       H  0.61100094  0.61293433  0.42850468     0.13550
H2478       H  0.57891124  0.58601665  0.36679013     0.14130
C2479       C  0.60122193  0.89805079  0.39823544    -0.15470
C2480       C  0.57912100  0.92434687  0.39069185    -0.30640
H2481       H  0.60554897  0.89205795  0.42446981     0.13550
H2482       H  0.57431867  0.93103077  0.36473841     0.14130
C2483       C  0.88939888  0.59882957  0.39388234    -0.15470
C2484       C  0.91709927  0.57881470  0.38628785    -0.30640
H2485       H  0.88066476  0.59911809  0.41989710     0.13550
H2486       H  0.92642908  0.57747505  0.36056467     0.14130
C2487       C  0.89212341  0.89179223  0.09509787    -0.15470
C2488       C  0.91347301  0.91490845  0.10472458    -0.30640
H2489       H  0.88957799  0.88815256  0.06851960     0.13550
H2490       H  0.91643700  0.91886137  0.13114836     0.14130
C2491       C  0.66956719  0.83231891  0.10820950    -0.15470
C2492       C  0.65032800  0.86039273  0.10034764    -0.30640
H2493       H  0.67065319  0.82296337  0.13390740     0.13550
H2494       H  0.64977435  0.86843787  0.07413971     0.14130
C2495       C  0.63960442  0.84778383  0.39246303    -0.15470
C2496       C  0.67288942  0.83992678  0.39057810    -0.30640
H2497       H  0.62483765  0.83374367  0.41096424     0.13550
H2498       H  0.68899422  0.85102901  0.37150070     0.14130
C2499       C  0.81923600  0.66089114  0.38760457    -0.15470
C2500       C  0.85126610  0.64952371  0.39169276    -0.30640
H2501       H  0.80586352  0.65485108  0.36562796     0.13550
H2502       H  0.86434828  0.65926222  0.41250172     0.14130
C2503       C  0.84701341  0.64506638  0.11089627    -0.15470
C2504       C  0.83886015  0.67881940  0.11093976    -0.30640
H2505       H  0.83384019  0.62978365  0.09389453     0.13550
H2506       H  0.84882172  0.69494054  0.12928191     0.14130
C2507       C  0.85401594  0.84505606  0.09895954    -0.15470
C2508       C  0.82124186  0.83895039  0.10123281    -0.30640
H2509       H  0.86958638  0.83098514  0.08060928     0.13550
H2510       H  0.80477381  0.84997341  0.12051940     0.14130
C2511       C  0.66115932  0.67986282  0.39382234    -0.15470
C2512       C  0.65414371  0.64683986  0.39684612    -0.30640
H2513       H  0.65093911  0.69661847  0.37436833     0.13550
H2514       H  0.66745838  0.63101698  0.41544827     0.14130
C2515       C  0.59434454  0.85940020  0.35162011    -0.15470
C2516       C  0.60266071  0.83356043  0.33125655    -0.30640
H2517       H  0.56803526  0.86789784  0.35443271     0.13550
H2518       H  0.62857068  0.82375537  0.32926405     0.14130
C2519       C  0.60601901  0.85448307  0.14467324    -0.15470
C2520       C  0.60825040  0.84520338  0.17721566    -0.30640
H2521       H  0.58813598  0.84188069  0.13007351     0.13550
H2522       H  0.62730346  0.85449729  0.19256486     0.14130
C2523       C  0.89853193  0.64565740  0.35182538    -0.15470
C2524       C  0.89033808  0.67101927  0.32977641    -0.30640
H2525       H  0.92483064  0.63984260  0.35687073     0.13550
H2526       H  0.86413916  0.67720485  0.32454077     0.14130
C2527       C  0.61537523  0.67220222  0.32902478    -0.15470
C2528       C  0.60614762  0.65270741  0.35573408    -0.30640
H2529       H  0.64146381  0.67345853  0.32113312     0.13550
H2530       H  0.57963514  0.65345601  0.36298970     0.14130
C2531       C  0.88871713  0.82365796  0.16272467    -0.15470
C2532       C  0.89675522  0.84961454  0.14174472    -0.30640
H2533       H  0.86331127  0.81532580  0.16453695     0.13550
H2534       H  0.92284880  0.85606797  0.13967353     0.14130
C2535       C  0.89335644  0.66258285  0.17786359    -0.15470
C2536       C  0.89810248  0.64845862  0.14788078    -0.30640
H2537       H  0.86989705  0.66022665  0.19181102     0.13550
H2538       H  0.92162272  0.65283674  0.13433621     0.14130
C2539       C  0.64248916  0.89872559  0.35059807    -0.15470
C2540       C  0.66291158  0.88910781  0.32436894    -0.30640
H2541       H  0.64177156  0.92538457  0.35734443     0.13550
H2542       H  0.66523331  0.86281140  0.31686412     0.14130
C2543       C  0.85687313  0.60077500  0.15578012    -0.15470
C2544       C  0.83079200  0.60908966  0.17659684    -0.30640
H2545       H  0.86474220  0.57386528  0.15439345     0.13550
H2546       H  0.82138075  0.63547959  0.17858370     0.14130
C2547       C  0.85222264  0.60715516  0.34405844    -0.15470
C2548       C  0.82794469  0.58609206  0.35279354    -0.30640
H2549       H  0.85861765  0.61070446  0.31763850     0.13550
H2550       H  0.82283590  0.58045913  0.37910451     0.14130
C2551       C  0.67495165  0.60926612  0.33547910    -0.15470
C2552       C  0.64833150  0.60235370  0.35544378    -0.30640
H2553       H  0.68352120  0.63497226  0.33333193     0.13550
H2554       H  0.64127347  0.57604612  0.35795545     0.14130
C2555       C  0.82921182  0.88548576  0.16705732    -0.15470
C2556       C  0.84881816  0.89423457  0.14043587    -0.30640
H2557       H  0.82706562  0.85902033  0.17464501     0.13550
H2558       H  0.84910098  0.92120326  0.13345648     0.14130
C2559       C  0.64683794  0.90302091  0.14664417    -0.15470
C2560       C  0.67261396  0.89297226  0.16610336    -0.30640
H2561       H  0.63938472  0.93013823  0.14565825     0.13550
H2562       H  0.68094128  0.86627265  0.16823277     0.14130
Zr2563     Zr  0.75427932  0.56664448  0.75355142     2.17510
O2564       O  0.73355875  0.62098590  0.72895446    -0.50370
O2565       O  0.78856451  0.58910335  0.79515860    -0.73570
O2566       O  0.71379187  0.59531521  0.79170186    -0.80360
O2567       O  0.81892075  0.55504520  0.68340446    -0.82100
O2568       O  0.68688833  0.55397768  0.82085914    -0.77730
O2569       O  0.79396229  0.59574141  0.71661722    -0.89360
O2570       O  0.81992799  0.54508327  0.81858259    -0.75320
O2571       O  0.75311635  0.52922260  0.80130665    -0.84820
O2572       O  0.80335043  0.52927643  0.74971904    -0.84500
O2573       O  0.70305379  0.53801098  0.75014263    -0.71260
O2574       O  0.75003516  0.53766677  0.70204556    -0.83400
Zr2575     Zr  0.74061127  0.93716450  0.73537332     2.26420
Zr2576     Zr  0.70304618  0.49960101  0.79755280     2.06270
Zr2577     Zr  0.79436443  0.00508875  0.69591169     2.10050
Zr2578     Zr  0.79687884  0.99436381  0.79282954     1.78760
O2579       O  0.79526684  0.50585693  0.63891734    -0.92200
O2580       O  0.78897803  0.98742519  0.85310971    -0.40010
O2581       O  0.79258749  0.96464391  0.74142800    -0.76640
O2582       O  0.74680608  0.96381900  0.78824798    -0.95330
O2583       O  0.69270293  0.97565432  0.74171865    -0.88630
O2584       O  0.74347683  0.97795969  0.69046812    -0.91470
C2585       C  0.81104488  0.57700161  0.81487197     1.02280
C2586       C  0.81449194  0.58601928  0.69292295     1.15210
C2587       C  0.69276010  0.58519047  0.81428317     1.05990
O2588       O  0.70079397  0.99240614  0.85394666    -0.93630
O2589       O  0.67930698  0.94685593  0.80958292    -0.89370
O2590       O  0.70266478  0.90707281  0.77440095    -0.82520
C2591       C  0.68354367  0.91611019  0.79958583     1.12630
O2592       O  0.67244177  0.55993171  0.67886633    -0.95600
Zr2593     Zr  0.69995548  0.50690418  0.69996734     1.88940
O2594       O  0.70142144  0.91951534  0.69410770    -0.72250
O2595       O  0.64209349  0.50653293  0.79603030    -0.51510
O2596       O  0.63987224  0.50731167  0.71271833    -0.96190
O2597       O  0.70674715  0.51463061  0.63958557    -0.53410
O2598       O  0.68238139  0.96726725  0.66537000    -0.72770
C2599       C  0.68549763  0.93494686  0.67008050     0.99570
O2600       O  0.76546530  0.88168751  0.75340941    -0.61590
O2601       O  0.85488514  0.99416884  0.69869604    -0.56390
O2602       O  0.77645772  0.91149093  0.69081628    -0.93080
O2603       O  0.80965488  0.95217115  0.66843539    -0.91500
O2604       O  0.85708740  0.98993261  0.78060150    -0.91860
O2605       O  0.82438443  0.94216423  0.81548715    -0.90640
C2606       C  0.79945048  0.92178700  0.67029258     1.18420
H2607       H  0.82355027  0.54166638  0.74940067     0.34360
H2608       H  0.74646736  0.94668037  0.80602078     0.45210
H2609       H  0.74405000  0.96750091  0.66895603     0.38740
H2610       H  0.68403825  0.55431425  0.75153496     0.35220
H2611       H  0.81126011  0.99094325  0.86209793     0.27010
H2612       H  0.63453645  0.50890362  0.81967292     0.32940
H2613       H  0.63007223  0.49855067  0.69252992     0.38850
H2614       H  0.86724513  0.99864377  0.80062342     0.33310
H2615       H  0.86345945  0.99765693  0.67545630     0.32190
H2616       H  0.81882170  0.50346884  0.63041758     0.33910
H2617       H  0.68612827  0.50620664  0.63048861     0.32840
H2618       H  0.81456721  0.92362859  0.80351858     0.36840
H2619       H  0.78975576  0.88269773  0.74796867     0.29570
H2620       H  0.73745528  0.63822373  0.74573005     0.33800
H2621       H  0.65421381  0.55309212  0.66479932     0.36650
H2622       H  0.86735492  0.51057732  0.71136109     0.29270
H2623       H  0.76409541  0.88184447  0.77811162     0.42140
H2624       H  0.71745013  0.51010992  0.86562756     0.32190
H2625       H  0.78055710  0.50464213  0.86428962     0.39810
H2626       H  0.72146055  0.01813796  0.62920304     0.31660
H2627       H  0.63724455  0.52939601  0.78565227     0.31720
H2628       H  0.70888519  0.61972613  0.72885747     0.31990
Zr2629     Zr  0.93414566  0.74785956  0.74548353     2.17510
O2630       O  0.88307805  0.77381378  0.77117754    -0.50370
O2631       O  0.90958485  0.70937340  0.70876420    -0.73570
O2632       O  0.90557513  0.78486082  0.70463212    -0.80360
O2633       O  0.94694438  0.68175485  0.81395646    -0.82100
O2634       O  0.94555380  0.81238145  0.67448627    -0.77730
O2635       O  0.90595833  0.70826895  0.78301861    -0.89360
O2636       O  0.95210727  0.67844443  0.68263195    -0.75320
O2637       O  0.96970914  0.74700424  0.69663178    -0.84820
O2638       O  0.97034293  0.69771769  0.74956712    -0.84500
O2639       O  0.96291967  0.79985375  0.74614484    -0.71260
O2640       O  0.96361351  0.75355507  0.79605692    -0.83400
Zr2641     Zr  0.56602507  0.75309605  0.75194064     2.26420
Zr2642     Zr  0.99976594  0.79757355  0.69787237     2.06270
Zr2643     Zr  0.50037074  0.70361437  0.79903949     2.10050
Zr2644     Zr  0.50513899  0.69721091  0.70127845     1.78760
O2645       O  0.99266222  0.70701242  0.85921713    -0.92200
O2646       O  0.50964551  0.70309843  0.64068045    -0.40010
O2647       O  0.53699051  0.70128540  0.75072233    -0.76640
O2648       O  0.53630208  0.74756561  0.70132415    -0.95330
O2649       O  0.53026946  0.80351032  0.74723506    -0.88630
O2650       O  0.53000846  0.75429576  0.80036471    -0.91470
C2651       C  0.92078902  0.68651938  0.68848964     1.02280
C2652       C  0.91643735  0.68620934  0.80508243     1.15210
C2653       C  0.91497799  0.80555640  0.68127491     1.05990
O2654       O  0.50643659  0.79674555  0.63759569    -0.93630
O2655       O  0.55362577  0.81642711  0.68038138    -0.89370
O2656       O  0.59415918  0.79048688  0.71232989    -0.82520
C2657       C  0.58419920  0.81103939  0.68878180     1.12630
O2658       O  0.94250583  0.83239538  0.81779991    -0.95600
Zr2659     Zr  0.99430591  0.80446993  0.79554284     1.88940
O2660       O  0.59074631  0.79315793  0.78705074    -0.72250
O2661       O  0.99359198  0.85964030  0.69878239    -0.51510
O2662       O  0.99319507  0.86518945  0.78099078    -0.96190
O2663       O  0.98907845  0.80024107  0.85631364    -0.53410
O2664       O  0.54833214  0.82322327  0.81425606    -0.72770
C2665       C  0.57963393  0.81562488  0.80779743     0.99570
O2666       O  0.61698804  0.72385492  0.72942241    -0.61590
O2667       O  0.50974639  0.64173757  0.80140286    -0.56390
O2668       O  0.59439863  0.71987603  0.79588303    -0.93080
O2669       O  0.55450695  0.68829438  0.82160515    -0.91500
O2670       O  0.50766280  0.63614554  0.71419268    -0.91860
O2671       O  0.55557652  0.66802362  0.67772949    -0.90640
C2672       C  0.58461638  0.69772292  0.81769651     1.18420
H2673       H  0.95809151  0.67720994  0.75059543     0.34360
H2674       H  0.55190699  0.74717095  0.68237568     0.45210
H2675       H  0.54241308  0.75482296  0.82056691     0.38740
H2676       H  0.94699303  0.81923816  0.74435355     0.35220
H2677       H  0.50533143  0.68022244  0.63258702     0.27010
H2678       H  0.99403272  0.86702738  0.67495218     0.32940
H2679       H  0.00205871  0.87595106  0.80063810     0.38850
H2680       H  0.50029668  0.62565983  0.69371663     0.33310
H2681       H  0.50305027  0.63488251  0.82452776     0.32190
H2682       H  0.99575670  0.68312630  0.86767209     0.33870
H2683       H  0.99881519  0.82106351  0.86420739     0.32840
H2684       H  0.57428308  0.67880881  0.68811028     0.36840
H2685       H  0.61438187  0.69939874  0.73500481     0.29570
H2686       H  0.86488334  0.76843530  0.75636427     0.33800
H2687       H  0.94943946  0.85155892  0.83099622     0.36650
H2688       H  0.99212144  0.63313056  0.78761415     0.29270
H2689       H  0.61493545  0.72555512  0.70488224     0.42140
H2690       H  0.99160749  0.78059848  0.63005339     0.32190
H2691       H  0.98985520  0.71693695  0.63439787     0.39810
H2692       H  0.50605453  0.78132100  0.86309943     0.31660
H2693       H  0.97018910  0.86499067  0.70669350     0.31720
H2694       H  0.88515383  0.79872529  0.76809546     0.31990
Zr2695     Zr  0.75008912  0.75025187  0.56563791     2.17510
O2696       O  0.72206082  0.72696946  0.61553007    -0.50370
O2697       O  0.78731771  0.78634116  0.59309558    -0.73570
O2698       O  0.78517142  0.70651761  0.59339084    -0.80360
O2699       O  0.68156481  0.81792719  0.55605934    -0.82100
O2700       O  0.81736033  0.67972328  0.55299913    -0.77730
O2701       O  0.71137149  0.78846056  0.59585269    -0.89360
O2702       O  0.81418133  0.81541155  0.55144200    -0.75320
O2703       O  0.79998626  0.74832797  0.53124454    -0.84820
O2704       O  0.74816483  0.80120331  0.53173146    -0.84500
O2705       O  0.74795378  0.69941365  0.53412129    -0.71260
O2706       O  0.69950622  0.74948782  0.53508147    -0.83400
Zr2707     Zr  0.74926818  0.74375948  0.93096145     2.26420
Zr2708     Zr  0.79726887  0.69893745  0.49848372     2.06270
Zr2709     Zr  0.69862945  0.80008975  0.50047914     2.10050
Zr2710     Zr  0.79947232  0.79865002  0.99341925     1.78760
O2711       O  0.63773781  0.79931101  0.50437225    -0.92200
O2712       O  0.86028920  0.78942551  0.99239093    -0.40010
O2713       O  0.75040842  0.79592781  0.96108420    -0.76640
O2714       O  0.79912215  0.74712112  0.96262806    -0.95330
O2715       O  0.75093529  0.69527656  0.96808389    -0.88630
O2716       O  0.69933780  0.74789717  0.96568310    -0.91470
C2717       C  0.80804381  0.80818022  0.58243881     1.02280
C2718       C  0.68899830  0.81104622  0.58655123     1.15210
C2719       C  0.80823875  0.68472259  0.58361831     1.05990
O2720       O  0.86069417  0.69706308  0.99571314    -0.93630
O2721       O  0.82047368  0.67380648  0.94888334    -0.89370
O2722       O  0.78817696  0.69749710  0.90746770    -0.82520
C2723       C  0.81131990  0.67589032  0.91860036     1.12630
O2724       O  0.67454355  0.67268736  0.55232991    -0.95600
Zr2725     Zr  0.69853355  0.69966550  0.50215348     1.88940
O2726       O  0.70992271  0.70695533  0.90690513    -0.72250
O2727       O  0.79935439  0.63677281  0.50111842    -0.51510
O2728       O  0.71103680  0.63824346  0.50040050    -0.96190
O2729       O  0.63752352  0.70711785  0.50628860    -0.53410
O2730       O  0.68133470  0.68012179  0.94909857    -0.72770
C2731       C  0.68807707  0.68628891  0.91798869     0.99570
O2732       O  0.77557642  0.76514795  0.87924227    -0.61590
O2733       O  0.69852846  0.86111629  0.99168441    -0.56390
O2734       O  0.71404269  0.78923104  0.90243873    -0.93080
O2735       O  0.68255655  0.81878520  0.94166966    -0.91500
O2736       O  0.78836410  0.86024368  0.98881939    -0.91860
O2737       O  0.82585820  0.82335991  0.94345540    -0.90640
C2738       C  0.69158850  0.81262109  0.91127027     1.18420
H2739       H  0.74747051  0.82130438  0.54511459     0.34360
H2740       H  0.81869815  0.74560888  0.94780585     0.45210
H2741       H  0.67952658  0.74888254  0.95246762     0.38740
H2742       H  0.74849178  0.67947016  0.54881866     0.35220
H2743       H  0.86866386  0.81219083  0.99620911     0.27010
H2744       H  0.82292131  0.62981253  0.50608256     0.32940
H2745       H  0.69091350  0.62902525  0.49105088     0.38850
H2746       H  0.80895385  0.86996295  0.99659225     0.33310
H2747       H  0.67518713  0.86843252  0.99838860     0.32190
H2748       H  0.62972319  0.82359589  0.50228283     0.33870
H2749       H  0.62937555  0.68637848  0.49652083     0.32840
H2750       H  0.81507877  0.81284550  0.92473995     0.36840
H2751       H  0.77433177  0.79030677  0.88095443     0.29570
H2752       H  0.73760654  0.72939276  0.63391960     0.33800
H2753       H  0.66144678  0.65400480  0.54448330     0.36650
H2754       H  0.71196727  0.86841236  0.51627106     0.29270
H2755       H  0.79975335  0.75865404  0.88119738     0.42140
H2756       H  0.86554087  0.70789724  0.51340310     0.32190
H2757       H  0.86292331  0.77347863  0.51486026     0.39810
H2758       H  0.63456418  0.72555971  0.98835237     0.31660
H2759       H  0.78636220  0.63076449  0.52170893     0.31720
H2760       H  0.72195775  0.70209113  0.61216100     0.31990
Zr2761     Zr  0.51053610  0.51563101  0.93985308     2.17510
O2762       O  0.98441521  0.99103866  0.88193026    -0.50370
O2763       O  0.55486400  0.55496814  0.92294716    -0.73570
O2764       O  0.96931088  0.55767368  0.91453179    -0.80360
O2765       O  0.56786897  0.93351791  0.94217669    -0.82100
O2766       O  0.93963896  0.58384453  0.95695543    -0.77730
O2767       O  0.54193855  0.96746563  0.90268275    -0.89360
O2768       O  0.58406446  0.56591830  0.96881769    -0.75320
O2769       O  0.50664859  0.55972955  0.97960478    -0.84820
O2770       O  0.55535672  0.50408451  0.97710031    -0.84500
O2771       O  0.95756184  0.50913120  0.96723457    -0.71260
O2772       O  0.49973841  0.95568669  0.96149582    -0.83400
Zr2773     Zr  0.99106303  0.99449538  0.56906862     2.26420
Zr2774     Zr  0.94874675  0.54941789  0.49818515     2.06270
Zr2775     Zr  0.54750588  0.95310460  0.50253254     2.10050
Zr2776     Zr  0.54731481  0.55149276  0.50163874     1.78760
O2777       O  0.54648715  0.88866809  0.99415841    -0.92200
O2778       O  0.53767598  0.61308350  0.50566496    -0.40010
O2779       O  0.54411720  0.00033477  0.53874546    -0.76640
O2780       O  0.99553215  0.54686308  0.53417915    -0.95330
O2781       O  0.94337436  0.99915252  0.53508915    -0.88630
O2782       O  0.99549125  0.94663917  0.53339633    -0.91470
C2783       C  0.57952966  0.56767037  0.93748549     1.02280
C2784       C  0.56276201  0.94279375  0.91176173     1.15210
C2785       C  0.94694952  0.57993878  0.92609351     1.05990
O2786       O  0.94825515  0.61149191  0.49682465    -0.93630
O2787       O  0.92884240  0.56815395  0.55274720    -0.89370
O2788       O  0.95291962  0.53407889  0.59325793    -0.82520
C2789       C  0.93343269  0.55915416  0.58339788     1.12630
O2790       O  0.93017291  0.93124218  0.94574854    -0.95600
Zr2791     Zr  0.95165478  0.95261965  0.99689917     1.88940
O2792       O  0.95101323  0.95652444  0.59494219    -0.72250
O2793       O  0.88775864  0.54908859  0.50070884    -0.51510
O2794       O  0.89137640  0.96593246  0.99527245    -0.96190
O2795       O  0.95917705  0.89074564  0.99306681    -0.53410
O2796       O  0.92557069  0.93207441  0.55263362    -0.72770
C2797       C  0.92997448  0.93655537  0.58373044     0.99570
O2798       O  0.51522465  0.51778096  0.61433241    -0.61590
O2799       O  0.60859811  0.95126165  0.50220324    -0.56390
O2800       O  0.53059400  0.95462143  0.59794591    -0.93080
O2801       O  0.56708571  0.93435444  0.55741538    -0.91500
O2802       O  0.60776529  0.53967735  0.50329620    -0.91860
O2803       O  0.57080835  0.57488820  0.55072457    -0.90640
C2804       C  0.55681774  0.93692833  0.58810338     1.18420
H2805       H  0.57681262  0.50287744  0.96523780     0.34360
H2806       H  0.99384592  0.56582972  0.54906287     0.45210
H2807       H  0.99600222  0.92548023  0.54632211     0.38740
H2808       H  0.93967645  0.51285901  0.95170919     0.35220
H2809       H  0.55949175  0.62244805  0.49906688     0.27010
H2810       H  0.87991867  0.57282058  0.49480041     0.32940
H2811       H  0.87748877  0.94398894  0.50608266     0.38850
H2812       H  0.61751881  0.56130053  0.49570733     0.33310
H2813       H  0.61575886  0.92727960  0.49742866     0.32190
H2814       H  0.57029217  0.88044879  0.99579262     0.33870
H2815       H  0.93777791  0.88198524  0.00187835     0.32840
H2816       H  0.56000362  0.56279824  0.56985079     0.36840
H2817       H  0.53981980  0.51339724  0.61174865     0.29570
H2818       H  0.98849280  0.00978029  0.86549290     0.33800
H2819       H  0.91118501  0.91730093  0.95283134     0.36650
H2820       H  0.61524823  0.96269713  0.97791529     0.29270
H2821       H  0.51202079  0.54290551  0.61177556     0.42140
H2822       H  0.97481733  0.62189567  0.00807705     0.32190
H2823       H  0.53788661  0.61692440  0.99324693     0.39810
H2824       H  0.97335610  0.88327929  0.51418374     0.31660
H2825       H  0.89036717  0.54518796  0.98097642     0.31720
H2826       H  0.95973084  0.99161232  0.88537396     0.31990
C2827       C  0.86912238  0.86994596  0.62046630    -0.01520
C2828       C  0.87891010  0.61947989  0.86561564    -0.01520
C2829       C  0.62368551  0.87431165  0.86767822    -0.01520
C2830       C  0.62623079  0.62787565  0.87485712    -0.01520
C2831       C  0.87685354  0.62831221  0.62828493    -0.01520
C2832       C  0.62572500  0.87650154  0.62855575    -0.01520
C2833       C  0.57587168  0.91743488  0.61399162    -0.15470
C2834       C  0.60702888  0.90407094  0.60730258    -0.30640
H2835       H  0.56350990  0.91261899  0.63807112     0.13550
H2836       H  0.61902405  0.91192336  0.58375785     0.14130
C2837       C  0.91564457  0.57936812  0.60940387    -0.15470
C2838       C  0.89557902  0.60698653  0.60178715    -0.30640
H2839       H  0.91923991  0.57178162  0.63538778     0.13550
H2840       H  0.89232631  0.61408678  0.57558717     0.14130
C2841       C  0.59890049  0.60799304  0.89331094    -0.15470
C2842       C  0.60572074  0.58503935  0.91788182    -0.30640
H2843       H  0.57279216  0.61254315  0.88663417     0.13550
H2844       H  0.63131991  0.58145692  0.92621124     0.14130
C2845       C  0.60433460  0.89690333  0.89343845    -0.15470
C2846       C  0.58223616  0.92330740  0.88555341    -0.30640
H2847       H  0.60819677  0.89089603  0.91973792     0.13550
H2848       H  0.57797578  0.93006983  0.85951439     0.14130
C2849       C  0.90021407  0.59516621  0.88841441    -0.15470
C2850       C  0.92816454  0.60382287  0.90331996    -0.30640
H2851       H  0.89358022  0.56871162  0.89141611     0.13550
H2852       H  0.93502681  0.63018641  0.90204213     0.14130
C2853       C  0.88698969  0.89571408  0.59793134    -0.15470
C2854       C  0.91011432  0.91642758  0.60821881    -0.30640
H2855       H  0.88155186  0.89693686  0.57154215     0.13550
H2856       H  0.91594264  0.91682103  0.63446513     0.14130
C2857       C  0.67052046  0.83066870  0.61272071    -0.15470
C2858       C  0.64792947  0.85575888  0.60425630    -0.30640
H2859       H  0.67567780  0.82471552  0.63866421     0.13550
H2860       H  0.64459644  0.86113895  0.57776966     0.14130
C2861       C  0.64278148  0.84594286  0.88810146    -0.15470
C2862       C  0.67555463  0.83525009  0.88502285    -0.30640
H2863       H  0.62798830  0.83364760  0.90780755     0.13550
H2864       H  0.69116763  0.84415026  0.86432888     0.14130
C2865       C  0.82670600  0.64894155  0.89646586    -0.15470
C2866       C  0.85958309  0.64733381  0.88680760    -0.30640
H2867       H  0.81144727  0.62765585  0.89245765     0.13550
H2868       H  0.87426901  0.66807020  0.89446927     0.14130
C2869       C  0.85772194  0.65674836  0.60883230    -0.15470
C2870       C  0.82431164  0.66263470  0.60931015    -0.30640
H2871       H  0.87257937  0.67193679  0.59136351     0.13550
H2872       H  0.80807265  0.64998806  0.62726805     0.14130
C2873       C  0.84875979  0.84900238  0.59769098    -0.15470
C2874       C  0.82600984  0.82648972  0.60752517    -0.30640
H2875       H  0.85359553  0.85201595  0.57097482     0.13550
H2876       H  0.81967969  0.82236197  0.63378413     0.14130
C2877       C  0.67010008  0.66824858  0.89264931    -0.15470
C2878       C  0.64369090  0.64911281  0.90014224    -0.30640
H2879       H  0.67908665  0.67111647  0.86704328     0.13550
H2880       H  0.63487302  0.64763055  0.92607391     0.14130
C2881       C  0.59767489  0.85834457  0.84685685    -0.15470
C2882       C  0.60530329  0.83290783  0.82572466    -0.30640
H2883       H  0.57139176  0.86664807  0.85048360     0.13550
H2884       H  0.63114586  0.82318374  0.82257472     0.14130
C2885       C  0.60122160  0.85286623  0.64571085    -0.15470
C2886       C  0.60964003  0.83050404  0.67057796    -0.30640
H2887       H  0.57544831  0.85450585  0.63779230     0.13550
H2888       H  0.63512272  0.82800894  0.67918315     0.14130
C2889       C  0.90230605  0.63765647  0.84140202    -0.15470
C2890       C  0.89191915  0.66429751  0.82169710    -0.30640
H2891       H  0.92903405  0.63070494  0.84204422     0.13550
H2892       H  0.86533193  0.67118574  0.81965059     0.14130
C2893       C  0.60906951  0.68190236  0.84065843    -0.15470
C2894       C  0.60806822  0.64835960  0.84758948    -0.30640
H2895       H  0.62588736  0.69796179  0.85267144     0.13550
H2896       H  0.59222579  0.63380253  0.83235860     0.14130
C2897       C  0.88842613  0.82364834  0.66179507    -0.15470
C2898       C  0.89557436  0.84661661  0.63740851    -0.30640
H2899       H  0.86257579  0.81994968  0.66940003     0.13550
H2900       H  0.92178263  0.85006324  0.63063800     0.14130
C2901       C  0.89517789  0.66916509  0.67061116    -0.15470
C2902       C  0.90282987  0.64371599  0.64951721    -0.30640
H2903       H  0.86930803  0.67884452  0.67374709     0.13550
H2904       H  0.92909132  0.63532504  0.64586171     0.14130
C2905       C  0.64615918  0.89768911  0.84649938    -0.15470
C2906       C  0.66489801  0.88959826  0.81868934    -0.30640
H2907       H  0.64601231  0.92396895  0.85436888     0.13550
H2908       H  0.66660321  0.86380219  0.80975456     0.14130
C2909       C  0.85454120  0.60419298  0.64864723    -0.15470
C2910       C  0.83465639  0.61218963  0.67549230    -0.30640
H2911       H  0.85483550  0.57800864  0.64045959     0.13550
H2912       H  0.83259811  0.63801489  0.68441650     0.14130
C2913       C  0.85881631  0.59622345  0.84485607    -0.15470
C2914       C  0.82748677  0.60222860  0.83435541    -0.30640
H2915       H  0.87250261  0.57332976  0.83579277     0.13550
H2916       H  0.81429823  0.62681074  0.83776117     0.14130
C2917       C  0.67295793  0.61123271  0.83329062    -0.15470
C2918       C  0.65109466  0.60248599  0.85807708    -0.30640
H2919       H  0.67435763  0.63761575  0.82490188     0.13550
H2920       H  0.64933479  0.57559329  0.86473861     0.14130
C2921       C  0.81524294  0.89728832  0.64666727    -0.15470
C2922       C  0.84858258  0.89027363  0.64667228    -0.30640
H2923       H  0.79968275  0.88707599  0.62818121     0.13550
H2924       H  0.86268214  0.90200409  0.66559153     0.14130
C2925       C  0.64606207  0.89341109  0.65420299    -0.15470
C2926       C  0.66970194  0.91494654  0.64530015    -0.30640
H2927       H  0.64049897  0.88904484  0.68067662     0.13550
H2928       H  0.67412939  0.92145373  0.61905393     0.14130
loop_ 
_geom_bond_atom_site_label_1 
_geom_bond_atom_site_label_2 
_geom_bond_distance 
_geom_bond_site_symmetry_2 
_ccdc_geom_bond_type 
Zr1           O2   2.436       .  S
Zr1           O3   2.398       .  S
Zr1           O4   2.441       .  S
Zr1           O7   2.440       .  S
Zr1           O9   2.381       .  S
Zr1          O10   2.383       .  S
Zr1          O11   2.397       .  S
Zr1          O12   2.398       .  S
O2           H58   0.990       .  S
O2           H66   0.990       .  S
O3           C23   1.277       .  A
O4           C25   1.286       .  A
O5         Zr747   2.425       .  S
O5           C24   1.286       .  A
O6          Zr14   2.397       .  S
O6           C25   1.279       .  A
O7           C24   1.286       .  A
O8         Zr748   2.476   1_545  S
O8           C23   1.293       .  A
O9          Zr14   2.386       .  S
O9         Zr748   2.366   1_545  S
O10        Zr747   2.381       .  S
O10        Zr748   2.358   1_545  S
O10          H45   0.966       .  S
O11         Zr14   2.395       .  S
O11         Zr31   2.388       .  S
O11          H48   0.966       .  S
O12         Zr31   2.392       .  S
O12        Zr747   2.392       .  S
Zr13         O38   2.440       .  S
Zr13         O32   2.416       .  S
Zr13         O40   2.433       .  S
Zr13         O28   2.443       .  S
Zr13         O19   2.400       .  S
Zr13         O20   2.398       .  S
Zr13         O21   2.379       .  S
Zr13         O22   2.384       .  S
Zr14         O33   2.436       .  S
Zr14        O758   2.437   1_545  S
Zr14        O759   2.410   1_545  S
Zr14        O752   2.385   1_545  S
Zr14        O753   2.385   1_545  S
Zr15         O39   2.437       .  S
Zr15        O749   2.436       .  S
Zr15         O41   2.412       .  S
Zr15        O737   2.417       .  S
Zr15         O19   2.390       .  S
Zr15         O22   2.386       .  S
Zr15        O742   2.392       .  S
Zr15        O744   2.385       .  S
Zr16         O42   2.436       .  S
Zr16         O43   2.434       .  S
Zr16         O18   2.436       .  S
Zr16        O740   2.408       .  S
Zr16         O19   2.389       .  S
Zr16         O20   2.393       .  S
Zr16        O741   2.377       .  S
Zr16        O742   2.382       .  S
O17        Zr747   2.435       .  S
O17          H54   0.990       .  S
O18          H49   0.990       .  S
O18         H795   0.990       .  S
O20        Zr746   2.393       .  S
O20          H46   0.966       .  S
O21        Zr746   2.380       .  S
O21        Zr763   2.364       .  S
O22        Zr763   2.369       .  S
O22          H47   0.966       .  S
C23         C352   1.482       .  S
C24         C348   1.484       .  S
C25         C355   1.469       .  S
O26        Zr746   2.435       .  S
O26         H794   0.990       .  S
O27        Zr746   2.410       .  S
O27          C29   1.283       .  A
O28          C29   1.286       .  A
C29         C344   1.480       .  S
O30         Zr31   2.439       .  S
O30          H59   0.990       .  S
Zr31         O34   2.437       .  S
Zr31         O35   2.438       .  S
Zr31        O768   2.406   1_545  S
Zr31        O753   2.383   1_545  S
Zr31        O754   2.380   1_545  S
O32          C37   1.280       .  A
O33          H50   0.990       .  S
O33          H65   0.990       .  S
O34          H51   0.990       .  S
O35          H55   0.990       .  S
O35         H796   0.990       .  S
O36        Zr763   2.458       .  S
O36          C37   1.290       .  A
C37         C364   1.484       .  S
O38          H57   0.990       .  S
O38          H61   0.990       .  S
O39          H53   0.990       .  S
O39         H792   0.990       .  S
O40          C44   1.284       .  A
O41          C44   1.283       .  A
O42          H52   0.990       .  S
O43          H56   0.990       .  S
C44         C359   1.472       .  S
H60         O771   0.990   1_545  S
H62         O758   0.990   1_545  S
H63         O750   0.990   1_545  S
H64         O767   0.989       .  S
Zr67         O68   2.436       .  S
Zr67         O69   2.399       .  S
Zr67         O70   2.440       .  S
Zr67         O73   2.468       .  S
Zr67         O75   2.389       .  S
Zr67         O76   2.378       .  S
Zr67         O77   2.409       .  S
Zr67         O78   2.399       .  S
O68         H124   0.990       .  S
O68         H132   0.990       .  S
O69          C89   1.277       .  A
O70          C91   1.286       .  A
O71       Zr1545   2.405       .  S
O71          C90   1.278       .  A
O72         Zr80   2.404       .  S
O72          C91   1.281       .  A
O73          C90   1.291       .  A
O74       Zr1546   2.457       .  S
O74          C89   1.290       .  A
O75         Zr80   2.385       .  S
O75       Zr1546   2.366       .  S
O76       Zr1545   2.376       .  S
O76       Zr1546   2.356       .  S
O76         H111   0.965       .  S
O77         Zr80   2.400       .  S
O77         Zr97   2.392       .  S
O77         H114   0.966       .  S
O78         Zr97   2.406       .  S
O78       Zr1545   2.387       .  S
Zr79        O104   2.437       .  S
Zr79         O98   2.414       .  S
Zr79        O106   2.448       .  S
Zr79         O94   2.445       .  S
Zr79         O85   2.404       .  S
Zr79         O86   2.409       .  S
Zr79         O87   2.377       .  S
Zr79         O88   2.381       .  S
Zr80         O99   2.437       .  S
Zr80       O1556   2.436       .  S
Zr80       O1557   2.426       .  S
Zr80       O1550   2.388       .  S
Zr80       O1551   2.376       .  S
Zr81        O105   2.437       .  S
Zr81       O1547   2.435   1_455  S
Zr81        O107   2.392       .  S
Zr81       O1535   2.402   1_455  S
Zr81         O85   2.391       .  S
Zr81         O88   2.375       .  S
Zr81       O1540   2.377   1_455  S
Zr81       O1542   2.388   1_455  S
Zr82        O108   2.435       .  S
Zr82        O109   2.435       .  S
Zr82         O84   2.436       .  S
Zr82       O1538   2.461   1_455  S
Zr82         O85   2.406       .  S
Zr82         O86   2.406       .  S
Zr82       O1539   2.366   1_455  S
Zr82       O1540   2.355   1_455  S
O83       Zr1545   2.435       .  S
O83         H120   0.990       .  S
O84         H115   0.990       .  S
O84        H1593   0.990   1_455  S
O86       Zr1544   2.388       .  S
O86         H112   0.966       .  S
O87       Zr1544   2.376       .  S
O87       Zr1561   2.369   1_455  S
O88       Zr1561   2.372   1_455  S
O88         H113   0.966       .  S
C89         C339   1.475       .  S
C90         C328   1.469       .  S
C91         C335   1.472       .  S
O92       Zr1544   2.436       .  S
O92        H1592   0.990   1_455  S
O93       Zr1544   2.424       .  S
O93          C95   1.284       .  A
O94          C95   1.286       .  A
C95         C324   1.479       .  S
O96         Zr97   2.440       .  S
O96         H125   0.990       .  S
Zr97        O100   2.437       .  S
Zr97        O101   2.439       .  S
Zr97       O1566   2.433       .  S
Zr97       O1551   2.371       .  S
Zr97       O1552   2.372       .  S
O98         C103   1.280       .  A
O99         H116   0.990       .  S
O99         H131   0.990       .  S
O100        H117   0.990       .  S
O101        H121   0.990       .  S
O101       H1594   0.990       .  S
O102      Zr1561   2.436   1_455  S
O102        C103   1.286       .  A
C103        C320   1.472       .  S
O104        H123   0.990       .  S
O104        H127   0.990       .  S
O105        H119   0.990       .  S
O105       H1590   0.990       .  S
O106        C110   1.287       .  A
O107        C110   1.279       .  A
O108        H118   0.990       .  S
O109        H122   0.990       .  S
C110        C331   1.475       .  S
H126       O1569   0.990       .  S
H128       O1556   0.990       .  S
H129       O1548   0.990       .  S
H130       O1565   0.990   1_455  S
Zr133       O134   2.440       .  S
Zr133       O135   2.420       .  S
Zr133       O136   2.434       .  S
Zr133       O139   2.424       .  S
Zr133       O141   2.387       .  S
Zr133       O142   2.383       .  S
Zr133       O143   2.401       .  S
Zr133       O144   2.399       .  S
O134        H190   0.990       .  S
O134        H198   0.990       .  S
O135        C155   1.280       .  A
O136        C157   1.283       .  A
O137       Zr147   2.439   1_554  S
O137        C156   1.288       .  A
O138       Zr146   2.429       .  S
O138        C157   1.284       .  A
O139        C156   1.282       .  A
O140       Zr514   2.410   1_554  S
O140        C155   1.281       .  A
O141       Zr146   2.388       .  S
O141       Zr514   2.376   1_554  S
O142       Zr147   2.376   1_554  S
O142       Zr514   2.370   1_554  S
O142        H177   0.966       .  S
O143       Zr146   2.398       .  S
O143       Zr163   2.390       .  S
O143        H180   0.966       .  S
O144       Zr147   2.389   1_554  S
O144       Zr163   2.395       .  S
Zr145       O170   2.445       .  S
Zr145       O164   2.425       .  S
Zr145       O172   2.433       .  S
Zr145       O160   2.440       .  S
Zr145       O151   2.398       .  S
Zr145       O152   2.401       .  S
Zr145       O153   2.380       .  S
Zr145       O154   2.385       .  S
Zr146       O165   2.437       .  S
Zr146       O524   2.435   1_554  S
Zr146       O525   2.433   1_554  S
Zr146       O518   2.393   1_554  S
Zr146       O519   2.386   1_554  S
Zr147       O149   2.435   1_556  S
Zr147       O537   2.437       .  S
Zr147       O539   2.423       .  S
Zr147       O517   2.396       .  S
Zr147       O520   2.383       .  S
Zr148       O174   2.436       .  S
Zr148       O175   2.436       .  S
Zr148       O150   2.437       .  S
Zr148       O506   2.406       .  S
Zr148       O151   2.388       .  S
Zr148       O152   2.391       .  S
Zr148       O507   2.376       .  S
Zr148       O508   2.375       .  S
O149        H186   0.990   1_554  S
O150        H181   0.990       .  S
O150        H561   0.990       .  S
O151       Zr513   2.394       .  S
O152       Zr512   2.394       .  S
O152        H178   0.966       .  S
O153       Zr512   2.389       .  S
O153       Zr529   2.371       .  S
O154       Zr513   2.378       .  S
O154       Zr529   2.374       .  S
O154        H179   0.966       .  S
C155        C312   1.461       .  S
C156        C295   1.480       .  S
C157        C308   1.470       .  S
O158       Zr512   2.436       .  S
O158        H560   0.990       .  S
O159       Zr512   2.438       .  S
O159        C161   1.286       .  A
O160        C161   1.286       .  A
C161        C303   1.483       .  S
O162       Zr163   2.440       .  S
O162        H191   0.990       .  S
Zr163       O166   2.437       .  S
Zr163       O167   2.440       .  S
Zr163       O534   2.417   1_554  S
Zr163       O519   2.372   1_554  S
Zr163       O520   2.372   1_554  S
O164        C169   1.282       .  A
O165        H182   0.990       .  S
O165        H197   0.990       .  S
O166        H183   0.990   1_554  S
O167        H187   0.990   1_554  S
O167        H562   0.990   1_554  S
O168       Zr529   2.420       .  S
O168        C169   1.283       .  A
C169        C315   1.466       .  S
O170        H189   0.990       .  S
O170        H193   0.990       .  S
O171       Zr513   2.437       .  S
O171        H185   0.990       .  S
O171        H558   0.990       .  S
O172        C176   1.283       .  A
O173       Zr513   2.424       .  S
O173        C176   1.284       .  A
O174        H184   0.990       .  S
O175        H188   0.990       .  S
C176        C300   1.468       .  S
H192        O537   0.990   1_554  S
H194        O524   0.990   1_554  S
H195        O516   0.990   1_554  S
H196        O533   0.990       .  S
Zr199      O2396   2.440   1_445  S
Zr199       O201   2.449       .  S
Zr199      O1666   2.488   1_455  S
Zr199       O937   2.461   1_545  S
Zr199       O207   2.385   1_455  S
Zr199       O208   2.390       .  S
Zr199      O1673   2.410   1_455  S
Zr199       O942   2.416   1_445  S
O200      Zr2395   2.440       .  S
O200        H256   0.990       .  S
O200        H264   0.990       .  S
O201        C221   1.286       .  A
O202      Zr1663   2.485       .  S
O202        C223   1.293       .  A
O203       Zr579   2.411       .  S
O203        C222   1.283       .  A
O204       Zr578   2.397       .  S
O204        C223   1.276       .  A
O205       Zr931   2.433       .  S
O205        C222   1.284       .  A
O206       Zr580   2.422       .  S
O206        C221   1.282       .  A
O207      Zr2042   2.397       .  S
O207       Zr580   2.382   1_655  S
O208      Zr1311   2.393   1_545  S
O208       Zr580   2.369       .  S
O208        H243   0.966       .  S
O209      Zr1663   2.405       .  S
O209       Zr578   2.401       .  S
O209       Zr961   2.380   1_545  S
O209        H246   0.965       .  S
O210       Zr931   2.406       .  S
O210       Zr579   2.393       .  S
O210      Zr1693   2.395   1_455  S
Zr211      O2432   2.442       .  S
Zr211       O230   2.406       .  S
Zr211      O1702   2.431       .  S
Zr211       O958   2.452       .  S
Zr211       O219   2.376       .  S
Zr211       O220   2.391       .  S
Zr211      O1681   2.399       .  S
Zr211       O950   2.394       .  S
Zr212       O231   2.437   1_554  S
Zr212       O224   2.435       .  S
Zr212       O225   2.401       .  S
Zr212       O570   2.376   1_554  S
Zr212       O218   2.382       .  S
Zr212      O2037   2.388   1_554  S
Zr212       O575   2.395   1_554  S
Zr212       O951   2.372   1_545  S
Zr213       O237   2.439       .  S
Zr213       O581   2.435   1_554  S
Zr213       O239   2.422       .  S
Zr213       O569   2.427   1_554  S
Zr213       O217   2.391       .  S
Zr213      O1306   2.383   1_554  S
Zr213       O576   2.392   1_554  S
Zr213      O1684   2.381   1_455  S
Zr214       O240   2.435       .  S
Zr214       O241   2.435       .  S
Zr214       O216   2.436       .  S
Zr214       O572   2.433   1_554  S
Zr214       O573   2.364   1_554  S
Zr214       O574   2.367   1_554  S
Zr214       O949   2.396   1_545  S
Zr214      O1682   2.399       .  S
O215       Zr579   2.435       .  S
O215        H252   0.990       .  S
O216        H247   0.990       .  S
O216        H627   0.990   1_554  S
O217      Zr1675   2.399   1_455  S
O217       Zr946   2.382       .  S
O218       Zr943   2.402   1_545  S
O218      Zr1678   2.395       .  S
O218        H244   0.966       .  S
O219       Zr944   2.380       .  S
O219       Zr595   2.373   1_554  S
O220      Zr1677   2.382       .  S
O220       Zr595   2.370   1_554  S
O220        H245   0.966       .  S
C221        C280   1.485       .  S
C222        C284   1.473       .  S
C223        C288   1.469       .  S
O224        H626   0.990   1_554  S
O225        C227   1.280       .  A
O226       Zr943   2.432   1_545  S
O226        C227   1.283       .  A
C227        C275   1.470       .  S
O228       Zr229   2.439       .  S
O228        H257   0.990       .  S
Zr229       O232   2.437       .  S
Zr229       O233   2.440       .  S
Zr229       O600   2.415       .  S
Zr229       O941   2.387       .  S
Zr229      O1674   2.393       .  S
Zr229       O585   2.372       .  S
Zr229       O586   2.373       .  S
O230        C235   1.279       .  A
O231        H248   0.990   1_556  S
O231        H629   0.990       .  S
O232        H615   0.990       .  S
O233        H253   0.990       .  S
O233        H628   0.990       .  S
O234       Zr595   2.456   1_554  S
O234        C235   1.289       .  A
C235        C292   1.475       .  S
O236      Zr2407   2.447   1_445  S
O236        H255   0.990       .  S
O236        H259   0.990       .  S
O237        H251   0.990       .  S
O237        H624   0.990   1_554  S
O238      Zr1675   2.425   1_455  S
O238        C242   1.282       .  A
O239        C242   1.285       .  A
O240        H250   0.990   1_554  S
O241        H254   0.990       .  S
C242        C271   1.467       .  S
H249        O598   0.990   1_554  S
H258        O603   0.990       .  S
H260        O590   0.990       .  S
H261        O582   0.990       .  S
H262        O599   0.989   1_554  S
H263        O597   0.990       .  S
C265        C291   1.534       .  S
C265        C311   1.516       .  S
C265        C336   1.520       .  S
C265        C360   1.531       .  S
C266        C287   1.537       .  S
C266        C304   1.539       .  S
C266        C327   1.531       .  S
C266        C351   1.538       .  S
C267        C283   1.524       .  S
C267        C299   1.527       .  S
C267        C319   1.522       .  S
C267        C343   1.531       .  S
C268        C279   1.536       .  S
C268        C316   1.522       .  S
C268        C332   1.528       .  S
C268        C356   1.517       .  S
C269        C276   1.521       .  S
C269        C307   1.530       .  S
C269        C340   1.524       .  S
C269        C347   1.533       .  S
C270        C272   1.524       .  S
C270        C296   1.527       .  S
C270        C323   1.532       .  S
C270        C363   1.533       .  S
C271        C272   1.345       .  D
C271        H273   1.085       .  S
C272        H274   1.090       .  S
C275        C276   1.350       .  D
C275        H277   1.087       .  S
C276        H278   1.089       .  S
C279        C280   1.354       .  D
C279        H281   1.088       .  S
C280        H282   1.087       .  S
C283        C284   1.349       .  D
C283        H285   1.089       .  S
C284        H286   1.087       .  S
C287        C288   1.343       .  D
C287        H289   1.088       .  S
C288        H290   1.087       .  S
C291        C292   1.345       .  D
C291        H293   1.088       .  S
C292        H294   1.088       .  S
C295        C296   1.345       .  D
C295        H297   1.085       .  S
C296        H298   1.089       .  S
C299        C300   1.344       .  D
C299        H301   1.090       .  S
C300        H302   1.082       .  S
C303        C304   1.352       .  D
C303        H305   1.083       .  S
C304        H306   1.088       .  S
C307        C308   1.345       .  D
C307        H309   1.089       .  S
C308        H310   1.081       .  S
C311        C312   1.341       .  D
C311        H313   1.090       .  S
C312        H314   1.081       .  S
C315        C316   1.343       .  D
C315        H317   1.081       .  S
C316        H318   1.089       .  S
C319        C320   1.343       .  D
C319        H321   1.088       .  S
C320        H322   1.084       .  S
C323        C324   1.347       .  D
C323        H325   1.089       .  S
C324        H326   1.082       .  S
C327        C328   1.338       .  D
C327        H329   1.088       .  S
C328        H330   1.086       .  S
C331        C332   1.354       .  D
C331        H333   1.081       .  S
C332        H334   1.088       .  S
C335        C336   1.350       .  D
C335        H337   1.084       .  S
C336        H338   1.087       .  S
C339        C340   1.340       .  D
C339        H341   1.085       .  S
C340        H342   1.088       .  S
C343        C344   1.350       .  D
C343        H345   1.088       .  S
C344        H346   1.082       .  S
C347        C348   1.349       .  D
C347        H349   1.088       .  S
C348        H350   1.083       .  S
C351        C352   1.341       .  D
C351        H353   1.087       .  S
C352        H354   1.083       .  S
C355        C356   1.351       .  D
C355        H357   1.084       .  S
C356        H358   1.087       .  S
C359        C360   1.348       .  D
C359        H361   1.081       .  S
C360        H362   1.088       .  S
C363        C364   1.343       .  D
C363        H365   1.089       .  S
C364        H366   1.084       .  S
Zr367       O368   2.440       .  S
Zr367       O369   2.433       .  S
Zr367       O370   2.442       .  S
Zr367       O373   2.430       .  S
Zr367       O375   2.380       .  S
Zr367       O376   2.383       .  S
Zr367       O377   2.403       .  S
Zr367       O378   2.402       .  S
O368        H424   0.990       .  S
O368        H432   0.990       .  S
O369        C389   1.284       .  A
O370        C391   1.284       .  A
O371      Zr1113   2.418   1_545  S
O371        C390   1.284       .  A
O372       Zr380   2.421   1_545  S
O372        C391   1.283       .  A
O373        C390   1.283       .  A
O374      Zr1114   2.416   1_545  S
O374        C389   1.279       .  A
O375       Zr380   2.386   1_545  S
O375      Zr1114   2.379   1_545  S
O376      Zr1113   2.382   1_545  S
O376      Zr1114   2.373   1_545  S
O376        H411   0.966       .  S
O377       Zr380   2.394   1_545  S
O377       Zr397   2.393       .  S
O377        H414   0.966       .  S
O378      Zr1113   2.389   1_545  S
O378       Zr397   2.398       .  S
Zr379       O404   2.442       .  S
Zr379       O398   2.426       .  S
Zr379       O406   2.436       .  S
Zr379       O394   2.471       .  S
Zr379       O385   2.409       .  S
Zr379       O386   2.402       .  S
Zr379       O387   2.378       .  S
Zr379       O388   2.390       .  S
Zr380       O399   2.435   1_565  S
Zr380      O1124   2.436       .  S
Zr380      O1125   2.407       .  S
Zr380      O1118   2.394       .  S
Zr380      O1119   2.392       .  S
Zr381      O1115   2.435       .  S
Zr381       O405   2.437       .  S
Zr381      O1103   2.430       .  S
Zr381       O407   2.414       .  S
Zr381      O1108   2.380       .  S
Zr381      O1110   2.387       .  S
Zr381       O385   2.395       .  S
Zr381       O388   2.383       .  S
Zr382       O408   2.435       .  S
Zr382       O409   2.437       .  S
Zr382       O384   2.435       .  S
Zr382      O1106   2.445       .  S
Zr382      O1107   2.373       .  S
Zr382      O1108   2.369       .  S
Zr382       O385   2.396       .  S
Zr382       O386   2.402       .  S
O383      Zr1113   2.436   1_545  S
O383        H420   0.990       .  S
O384        H415   0.990       .  S
O384       H1161   0.990       .  S
O386      Zr1112   2.389       .  S
O386        H412   0.966       .  S
O387      Zr1112   2.383       .  S
O387      Zr1129   2.374       .  S
O388      Zr1129   2.371       .  S
O388        H413   0.966       .  S
C389        C718   1.466       .  S
C390        C714   1.476       .  S
C391        C721   1.477       .  S
O392      Zr1112   2.435       .  S
O392       H1160   0.990       .  S
O393      Zr1112   2.402       .  S
O393        C395   1.280       .  A
O394        C395   1.291       .  A
C395        C710   1.489       .  S
O396       Zr397   2.439       .  S
O396        H425   0.990       .  S
Zr397       O400   2.437       .  S
Zr397       O401   2.438       .  S
Zr397      O1134   2.425   1_545  S
Zr397      O1119   2.377   1_545  S
Zr397      O1120   2.370   1_545  S
O398        C403   1.282       .  A
O399        H416   0.990       .  S
O399        H431   0.990       .  S
O400        H417   0.990       .  S
O401        H421   0.990       .  S
O401       H1162   0.990       .  S
O402      Zr1129   2.438       .  S
O402        C403   1.286       .  A
C403        C730   1.471       .  S
O404        H423   0.990       .  S
O404        H427   0.990       .  S
O405        H419   0.990       .  S
O405       H1158   0.990       .  S
O406        C410   1.285       .  A
O407        C410   1.284       .  A
O408        H418   0.990       .  S
O409        H422   0.990       .  S
C410        C725   1.476       .  S
H426       O1137   0.990   1_545  S
H428       O1124   0.990   1_545  S
H429       O1116   0.990       .  S
H430       O1133   0.990       .  S
Zr433       O434   2.440       .  S
Zr433       O435   2.445       .  S
Zr433       O436   2.421       .  S
Zr433       O439   2.415       .  S
Zr433       O441   2.378       .  S
Zr433       O442   2.381       .  S
Zr433       O443   2.406       .  S
Zr433       O444   2.403       .  S
O434        H490   0.990       .  S
O434        H498   0.990       .  S
O435        C455   1.287       .  A
O436        C457   1.280       .  A
O437      Zr1911   2.422       .  S
O437        C456   1.285       .  A
O438       Zr446   2.421       .  S
O438        C457   1.284       .  A
O439        C456   1.279       .  A
O440      Zr1912   2.420       .  S
O440        C455   1.279       .  A
O441       Zr446   2.380       .  S
O441      Zr1912   2.374       .  S
O442      Zr1911   2.383       .  S
O442      Zr1912   2.373       .  S
O442        H477   0.966       .  S
O443       Zr446   2.390       .  S
O443       Zr463   2.395       .  S
O443        H480   0.966       .  S
O444      Zr1911   2.382       .  S
O444       Zr463   2.401       .  S
Zr445       O470   2.441       .  S
Zr445       O464   2.436       .  S
Zr445       O472   2.446       .  S
Zr445       O460   2.458       .  S
Zr445       O451   2.406       .  S
Zr445       O452   2.405       .  S
Zr445       O453   2.380       .  S
Zr445       O454   2.386       .  S
Zr446       O465   2.436       .  S
Zr446      O1922   2.436       .  S
Zr446      O1923   2.406       .  S
Zr446      O1916   2.395       .  S
Zr446      O1917   2.386       .  S
Zr447      O1913   2.436       .  S
Zr447       O471   2.437   1_655  S
Zr447      O1901   2.436       .  S
Zr447       O473   2.420   1_655  S
Zr447      O1906   2.384       .  S
Zr447      O1908   2.386       .  S
Zr447       O451   2.393   1_655  S
Zr447       O454   2.392   1_655  S
Zr448       O474   2.436       .  S
Zr448       O475   2.433       .  S
Zr448       O450   2.437       .  S
Zr448      O1904   2.412   1_455  S
Zr448      O1905   2.371   1_455  S
Zr448      O1906   2.368   1_455  S
Zr448       O451   2.395       .  S
Zr448       O452   2.387       .  S
O449      Zr1911   2.435       .  S
O449        H486   0.990       .  S
O450        H481   0.990       .  S
O450       H1959   0.990       .  S
O452      Zr1910   2.393   1_455  S
O452        H478   0.966       .  S
O453      Zr1910   2.383   1_455  S
O453      Zr1927   2.371   1_455  S
O454      Zr1927   2.375   1_455  S
O454        H479   0.966       .  S
C455        C705   1.471       .  S
C456        C694   1.474       .  S
C457        C701   1.472       .  S
O458      Zr1910   2.436   1_455  S
O458       H1958   0.990   1_455  S
O459      Zr1910   2.414   1_455  S
O459        C461   1.283       .  A
O460        C461   1.289       .  A
C461        C690   1.481       .  S
O462       Zr463   2.439       .  S
O462        H491   0.990       .  S
Zr463       O466   2.437       .  S
Zr463       O467   2.442       .  S
Zr463      O1932   2.434       .  S
Zr463      O1917   2.370       .  S
Zr463      O1918   2.375       .  S
O464        C469   1.285       .  A
O465        H482   0.990       .  S
O465        H497   0.990       .  S
O466        H483   0.990       .  S
O467        H487   0.990       .  S
O467       H1960   0.989       .  S
O468      Zr1927   2.435   1_455  S
O468        C469   1.283       .  A
C469        C686   1.475       .  S
O470        H489   0.990       .  S
O470        H493   0.990       .  S
O471        H485   0.990       .  S
O471       H1956   0.990   1_455  S
O472        C476   1.287       .  A
O473        C476   1.284       .  A
O474        H484   0.990       .  S
O475        H488   0.990       .  S
C476        C697   1.476       .  S
H492       O1935   0.990       .  S
H494       O1922   0.990       .  S
H495       O1914   0.990       .  S
H496       O1931   0.989       .  S
Zr499       O500   2.440       .  S
Zr499       O501   2.430       .  S
Zr499       O502   2.426       .  S
Zr499       O505   2.435       .  S
Zr499       O507   2.389       .  S
Zr499       O508   2.383       .  S
Zr499       O509   2.407       .  S
Zr499       O510   2.399       .  S
O500        H556   0.990       .  S
O500        H564   0.990       .  S
O501        C521   1.282       .  A
O502        C523   1.281       .  A
O503       Zr513   2.431       .  S
O503        C522   1.286       .  A
O504       Zr512   2.435       .  S
O504        C523   1.285       .  A
O505        C522   1.284       .  A
O506        C521   1.281       .  A
O507       Zr512   2.390       .  S
O508       Zr513   2.381       .  S
O508        H543   0.966       .  S
O509       Zr512   2.399       .  S
O509       Zr529   2.390       .  S
O509        H546   0.966       .  S
O510       Zr513   2.388       .  S
O510       Zr529   2.397       .  S
Zr511       O536   2.439       .  S
Zr511       O530   2.420       .  S
Zr511       O538   2.449       .  S
Zr511       O526   2.450       .  S
Zr511       O517   2.402       .  S
Zr511       O518   2.403       .  S
Zr511       O519   2.383       .  S
Zr511       O520   2.388       .  S
Zr512       O531   2.437       .  S
Zr513       O515   2.435       .  S
Zr514       O540   2.435       .  S
Zr514       O541   2.435       .  S
Zr514       O516   2.436       .  S
Zr514       O517   2.393       .  S
Zr514       O518   2.390       .  S
O515        H552   0.990       .  S
O516        H547   0.990   1_556  S
O518        H544   0.966       .  S
O520        H545   0.966       .  S
C521        C678   1.477       .  S
C522        C661   1.486       .  S
C523        C674   1.466       .  S
O525        C527   1.290       .  A
O526        C527   1.288       .  A
C527        C669   1.507       .  S
O528       Zr529   2.439       .  S
O528        H557   0.990       .  S
Zr529       O532   2.437       .  S
Zr529       O533   2.439       .  S
O530        C535   1.280       .  A
O531        H548   0.990       .  S
O531        H563   0.990       .  S
O532        H549   0.990       .  S
O533        H553   0.990       .  S
O534        C535   1.284       .  A
C535        C681   1.477       .  S
O536        H555   0.990       .  S
O536        H559   0.990       .  S
O537        H551   0.990   1_556  S
O538        C542   1.287       .  A
O539        C542   1.285       .  A
O540        H550   0.990   1_556  S
O541        H554   0.990       .  S
C542        C666   1.487       .  S
Zr565      O2762   2.437   1_445  S
Zr565       O567   2.420       .  S
Zr565      O2032   2.483   1_455  S
Zr565      O1303   2.462   1_545  S
Zr565       O573   2.381       .  S
Zr565       O574   2.393       .  S
Zr565      O2039   2.403   1_455  S
Zr565      O1308   2.406   1_545  S
O566      Zr2761   2.439       .  S
O566        H622   0.990       .  S
O566        H630   0.990       .  S
O567        C587   1.280       .  A
O568      Zr2029   2.478       .  S
O568        C589   1.292       .  A
O569        C588   1.285       .  A
O570        C589   1.272       .  A
O571      Zr1297   2.466       .  S
O571        C588   1.291       .  A
O572        C587   1.286       .  A
O573      Zr1676   2.384   1_456  S
O574       Zr945   2.391   1_545  S
O574        H609   0.966       .  S
O575      Zr2029   2.406       .  S
O575      Zr1327   2.391   1_545  S
O575        H612   0.966       .  S
O576      Zr1297   2.425       .  S
O576      Zr2059   2.408   1_455  S
Zr577      O2798   2.443       .  S
Zr577       O596   2.424       .  S
Zr577      O2068   2.433       .  S
Zr577      O1324   2.417       .  S
Zr577      O2047   2.398       .  S
Zr577      O1316   2.405       .  S
Zr577       O585   2.384       .  S
Zr577       O586   2.378       .  S
Zr578       O597   2.437       .  S
Zr578       O590   2.435       .  S
Zr578       O591   2.418       .  S
Zr578      O1671   2.396       .  S
Zr578       O584   2.385       .  S
Zr578      O1317   2.382       .  S
Zr579       O603   2.437       .  S
Zr579       O605   2.429       .  S
Zr579       O940   2.388       .  S
Zr579       O583   2.385       .  S
Zr579      O2050   2.377   1_455  S
Zr580       O606   2.436       .  S
Zr580       O607   2.435       .  S
Zr580       O582   2.435       .  S
Zr580      O1315   2.394   1_545  S
Zr580      O2048   2.394   1_455  S
O581        H618   0.990   1_556  S
O582        H613   0.990       .  S
O583      Zr2041   2.399   1_455  S
O583      Zr1312   2.396       .  S
O584      Zr1309   2.404   1_545  S
O584      Zr2044   2.395       .  S
O584        H610   0.966       .  S
O585      Zr1310   2.386       .  S
O586      Zr2043   2.378       .  S
O586        H611   0.966       .  S
C587        C646   1.479       .  S
C588        C650   1.492       .  S
C589        C654   1.461       .  S
O591        C593   1.284       .  A
O592      Zr1309   2.440   1_545  S
O592        C593   1.284       .  A
C593        C641   1.480       .  S
O594       Zr595   2.440       .  S
O594        H623   0.990       .  S
Zr595       O598   2.437       .  S
Zr595       O599   2.441       .  S
Zr595      O1307   2.409       .  S
Zr595      O2040   2.408       .  S
O596        C601   1.281       .  A
O597        H614   0.990       .  S
O599        H619   0.990       .  S
O600        C601   1.282       .  A
C601        C658   1.474       .  S
O602      Zr2773   2.444   1_445  S
O602        H621   0.990       .  S
O602        H625   0.990       .  S
O603        H617   0.990       .  S
O604      Zr2041   2.431   1_455  S
O604        C608   1.283       .  A
O605        C608   1.286       .  A
O606        H616   0.990       .  S
O607        H620   0.990       .  S
C608        C637   1.475       .  S
C631        C657   1.532       .  S
C631        C677   1.528       .  S
C631        C702   1.524       .  S
C631        C726   1.527       .  S
C632        C653   1.531       .  S
C632        C670   1.549       .  S
C632        C693   1.525       .  S
C632        C717   1.522       .  S
C633        C649   1.548       .  S
C633        C665   1.532       .  S
C633        C685   1.527       .  S
C633        C709   1.531       .  S
C634        C645   1.533       .  S
C634        C682   1.531       .  S
C634        C698   1.528       .  S
C634        C722   1.526       .  S
C635        C642   1.526       .  S
C635        C673   1.529       .  S
C635        C706   1.525       .  S
C635        C713   1.528       .  S
C636        C638   1.528       .  S
C636        C662   1.531       .  S
C636        C689   1.529       .  S
C636        C729   1.525       .  S
C637        C638   1.346       .  D
C637        H639   1.085       .  S
C638        H640   1.090       .  S
C641        C642   1.349       .  D
C641        H643   1.086       .  S
C642        H644   1.089       .  S
C645        C646   1.346       .  D
C645        H647   1.086       .  S
C646        H648   1.086       .  S
C649        C650   1.357       .  D
C649        H651   1.088       .  S
C650        H652   1.084       .  S
C653        C654   1.344       .  D
C653        H655   1.088       .  S
C654        H656   1.087       .  S
C657        C658   1.349       .  D
C657        H659   1.087       .  S
C658        H660   1.087       .  S
C661        C662   1.347       .  D
C661        H663   1.086       .  S
C662        H664   1.088       .  S
C665        C666   1.351       .  D
C665        H667   1.088       .  S
C666        H668   1.084       .  S
C669        C670   1.329       .  D
C669        H671   1.216       .  S
C670        H672   1.219       .  S
C673        C674   1.342       .  D
C673        H675   1.089       .  S
C674        H676   1.082       .  S
C677        C678   1.348       .  D
C677        H679   1.086       .  S
C678        H680   1.079       .  S
C681        C682   1.346       .  D
C681        H683   1.081       .  S
C682        H684   1.086       .  S
C685        C686   1.344       .  D
C685        H687   1.087       .  S
C686        H688   1.086       .  S
C689        C690   1.353       .  D
C689        H691   1.088       .  S
C690        H692   1.086       .  S
C693        C694   1.342       .  D
C693        H695   1.088       .  S
C694        H696   1.086       .  S
C697        C698   1.349       .  D
C697        H699   1.082       .  S
C698        H700   1.088       .  S
C701        C702   1.344       .  D
C701        H703   1.079       .  S
C702        H704   1.088       .  S
C705        C706   1.342       .  D
C705        H707   1.086       .  S
C706        H708   1.087       .  S
C709        C710   1.357       .  D
C709        H711   1.084       .  S
C710        H712   1.085       .  S
C713        C714   1.347       .  D
C713        H715   1.088       .  S
C714        H716   1.086       .  S
C717        C718   1.341       .  D
C717        H719   1.088       .  S
C718        H720   1.087       .  S
C721        C722   1.347       .  D
C721        H723   1.083       .  S
C722        H724   1.088       .  S
C725        C726   1.348       .  D
C725        H727   1.079       .  S
C726        H728   1.088       .  S
C729        C730   1.342       .  D
C729        H731   1.089       .  S
C730        H732   1.082       .  S
Zr733       O734   2.442       .  S
Zr733       O735   2.476       .  S
Zr733       O736   2.440       .  S
Zr733       O739   2.442       .  S
Zr733       O741   2.379       .  S
Zr733       O742   2.381       .  S
Zr733       O743   2.420       .  S
Zr733       O744   2.411       .  S
O734        H790   0.990       .  S
O734        H798   0.991       .  S
O735        C755   1.291       .  A
O736        C757   1.283       .  A
O737        C756   1.282       .  A
O738       Zr746   2.408       .  S
O738        C757   1.281       .  A
O739        C756   1.284       .  A
O740        C755   1.277       .  A
O741       Zr746   2.388       .  S
O742        H777   0.966       .  S
O743       Zr746   2.395       .  S
O743       Zr763   2.407       .  S
O743        H780   0.966       .  S
O744       Zr763   2.407       .  S
Zr745       O770   2.447       .  S
Zr745       O764   2.479       .  S
Zr745       O772   2.443       .  S
Zr745       O760   2.470       .  S
Zr745       O751   2.423       .  S
Zr745       O752   2.417       .  S
Zr745       O753   2.377       .  S
Zr745       O754   2.386       .  S
Zr746       O765   2.438       .  S
Zr747       O771   2.437   1_545  S
Zr747       O773   2.429   1_545  S
Zr747       O751   2.389   1_545  S
Zr747       O754   2.377   1_545  S
Zr748       O774   2.436       .  S
Zr748       O775   2.435       .  S
Zr748       O750   2.436       .  S
Zr748       O751   2.410       .  S
Zr748       O752   2.416       .  S
O749        H786   0.990       .  S
O750        H781   0.990       .  S
O752        H778   0.966       .  S
O754        H779   0.966       .  S
C755       C1084   1.480       .  S
C756       C1080   1.471       .  S
C757       C1087   1.474       .  S
O759        C761   1.281       .  A
O760        C761   1.290       .  A
C761       C1076   1.492       .  S
O762       Zr763   2.440       .  S
O762        H791   0.990       .  S
Zr763       O766   2.437       .  S
Zr763       O767   2.440       .  S
O764        C769   1.294       .  A
O765        H782   0.990       .  S
O765        H797   0.990       .  S
O766        H783   0.990       .  S
O767        H787   0.990       .  S
O768        C769   1.277       .  A
C769       C1096   1.476       .  S
O770        H789   0.990       .  S
O770        H793   0.990       .  S
O771        H785   0.990       .  S
O772        C776   1.285       .  A
O773        C776   1.286       .  A
O774        H784   0.990       .  S
O775        H788   0.990       .  S
C776       C1091   1.484       .  S
Zr799       O800   2.441       .  S
Zr799       O801   2.460       .  S
Zr799       O802   2.435       .  S
Zr799       O805   2.426       .  S
Zr799       O807   2.380       .  S
Zr799       O808   2.377       .  S
Zr799       O809   2.413       .  S
Zr799       O810   2.412       .  S
O800        H856   0.990       .  S
O800        H864   0.990       .  S
O801        C821   1.289       .  A
O802        C823   1.282       .  A
O803      Zr2277   2.426       .  S
O803        C822   1.284       .  A
O804       Zr812   2.424       .  S
O804        C823   1.284       .  A
O805        C822   1.282       .  A
O806      Zr2278   2.399       .  S
O806        C821   1.276       .  A
O807       Zr812   2.388       .  S
O807      Zr2278   2.382       .  S
O808      Zr2277   2.374       .  S
O808      Zr2278   2.380       .  S
O808        H843   0.965       .  S
O809       Zr812   2.392       .  S
O809       Zr829   2.409       .  S
O809        H846   0.966       .  S
O810      Zr2277   2.383       .  S
O810       Zr829   2.407       .  S
Zr811       O836   2.444       .  S
Zr811       O830   2.439       .  S
Zr811       O838   2.434       .  S
Zr811       O826   2.431       .  S
Zr811       O817   2.405       .  S
Zr811       O818   2.408       .  S
Zr811       O819   2.379       .  S
Zr811       O820   2.380       .  S
Zr812       O831   2.438       .  S
Zr812      O2288   2.435       .  S
Zr812      O2289   2.415       .  S
Zr812      O2282   2.396       .  S
Zr812      O2283   2.385       .  S
Zr813      O2279   2.435   1_455  S
Zr813       O837   2.437       .  S
Zr813      O2267   2.417   1_455  S
Zr813       O839   2.417       .  S
Zr813      O2272   2.383   1_455  S
Zr813      O2274   2.389   1_455  S
Zr813       O817   2.389       .  S
Zr813       O820   2.379       .  S
Zr814       O840   2.435       .  S
Zr814       O841   2.436       .  S
Zr814       O816   2.436       .  S
Zr814      O2270   2.455   1_455  S
Zr814      O2271   2.371   1_455  S
Zr814      O2272   2.368   1_455  S
Zr814       O817   2.405       .  S
Zr814       O818   2.402       .  S
O815      Zr2277   2.435       .  S
O815        H852   0.990       .  S
O816        H847   0.990       .  S
O816       H2325   0.990   1_455  S
O818      Zr2276   2.389   1_455  S
O818        H844   0.966       .  S
O819      Zr2276   2.381   1_455  S
O819      Zr2293   2.373   1_455  S
O820      Zr2293   2.377   1_455  S
O820        H845   0.966       .  S
C821       C1071   1.465       .  S
C822       C1060   1.475       .  S
C823       C1067   1.480       .  S
O824      Zr2276   2.435   1_455  S
O824       H2324   0.990   1_455  S
O825      Zr2276   2.406   1_455  S
O825        C827   1.281       .  A
O826        C827   1.283       .  A
C827       C1056   1.468       .  S
O828       Zr829   2.440       .  S
O828        H857   0.990       .  S
Zr829       O832   2.437       .  S
Zr829       O833   2.440       .  S
Zr829      O2298   2.458       .  S
Zr829      O2283   2.365       .  S
Zr829      O2284   2.371       .  S
O830        C835   1.285       .  A
O831        H848   0.990       .  S
O831        H863   0.990       .  S
O832        H849   0.990       .  S
O833        H853   0.990       .  S
O833       H2326   0.989       .  S
O834      Zr2293   2.430   1_455  S
O834        C835   1.284       .  A
C835       C1052   1.481       .  S
O836        H855   0.990       .  S
O836        H859   0.990       .  S
O837        H851   0.990       .  S
O837       H2322   0.990   1_455  S
O838        C842   1.283       .  A
O839        C842   1.284       .  A
O840        H850   0.990       .  S
O841        H854   0.990       .  S
C842       C1063   1.478       .  S
H858       O2301   0.990       .  S
H860       O2288   0.990       .  S
H861       O2280   0.990       .  S
H862       O2297   0.990   1_455  S
Zr865       O866   2.439       .  S
Zr865       O867   2.425       .  S
Zr865       O868   2.418       .  S
Zr865       O871   2.395       .  S
Zr865       O873   2.378       .  S
Zr865       O874   2.379       .  S
Zr865       O875   2.400       .  S
Zr865       O876   2.407       .  S
O866        H922   0.990       .  S
O866        H930   0.990       .  S
O867        C887   1.281       .  A
O868        C889   1.280       .  A
O869       Zr879   2.455   1_554  S
O869        C888   1.291       .  A
O870       Zr878   2.440       .  S
O870        C889   1.287       .  A
O871        C888   1.276       .  A
O872      Zr1246   2.435   1_554  S
O872        C887   1.285       .  A
O873       Zr878   2.382       .  S
O873      Zr1246   2.376   1_554  S
O874       Zr879   2.374   1_554  S
O874      Zr1246   2.366   1_554  S
O874        H909   0.966       .  S
O875       Zr878   2.390       .  S
O875       Zr895   2.403       .  S
O875        H912   0.966       .  S
O876       Zr879   2.383   1_554  S
O876       Zr895   2.404       .  S
Zr877       O902   2.443       .  S
Zr877       O896   2.434       .  S
Zr877       O904   2.442       .  S
Zr877       O892   2.437       .  S
Zr877       O883   2.401       .  S
Zr877       O884   2.411       .  S
Zr877       O885   2.383       .  S
Zr877       O886   2.383       .  S
Zr878       O897   2.435       .  S
Zr878      O1256   2.434   1_554  S
Zr878      O1257   2.412   1_554  S
Zr878      O1250   2.401   1_554  S
Zr878      O1251   2.393   1_554  S
Zr879       O881   2.435   1_556  S
Zr879      O1269   2.438       .  S
Zr879      O1271   2.421       .  S
Zr879      O1249   2.404       .  S
Zr879      O1252   2.391       .  S
Zr880       O906   2.435       .  S
Zr880       O907   2.435       .  S
Zr880       O882   2.436       .  S
Zr880      O1238   2.427       .  S
Zr880      O1239   2.373       .  S
Zr880      O1240   2.367       .  S
Zr880       O883   2.397       .  S
Zr880       O884   2.396       .  S
O881        H918   0.990   1_554  S
O882        H913   0.990       .  S
O882       H1293   0.990       .  S
O883      Zr1245   2.390       .  S
O884      Zr1244   2.393       .  S
O884        H910   0.966       .  S
O885      Zr1244   2.388       .  S
O885      Zr1261   2.370       .  S
O886      Zr1245   2.377       .  S
O886      Zr1261   2.378       .  S
O886        H911   0.966       .  S
C887       C1044   1.472       .  S
C888       C1027   1.469       .  S
C889       C1040   1.478       .  S
O890      Zr1244   2.436       .  S
O890       H1292   0.990       .  S
O891      Zr1244   2.430       .  S
O891        C893   1.287       .  A
O892        C893   1.284       .  A
C893       C1035   1.479       .  S
O894       Zr895   2.440       .  S
O894        H923   0.990       .  S
Zr895       O898   2.436       .  S
Zr895       O899   2.440       .  S
Zr895      O1266   2.439   1_554  S
Zr895      O1251   2.374   1_554  S
Zr895      O1252   2.374   1_554  S
O896        C901   1.283       .  A
O897        H914   0.990       .  S
O897        H929   0.990       .  S
O898        H915   0.990   1_554  S
O899        H919   0.990   1_554  S
O899       H1294   0.990   1_554  S
O900      Zr1261   2.417       .  S
O900        C901   1.282       .  A
C901       C1047   1.469       .  S
O902        H921   0.990       .  S
O902        H925   0.990       .  S
O903      Zr1245   2.436       .  S
O903        H917   0.990       .  S
O903       H1290   0.990       .  S
O904        C908   1.285       .  A
O905      Zr1245   2.439       .  S
O905        C908   1.287       .  A
O906        H916   0.990       .  S
O907        H920   0.990       .  S
C908       C1032   1.481       .  S
H924       O1269   0.990   1_554  S
H926       O1256   0.990   1_554  S
H927       O1248   0.990   1_554  S
H928       O1265   0.990       .  S
Zr931      O1664   2.440   1_455  S
Zr931       O933   2.436       .  S
Zr931      O2398   2.454   1_455  S
Zr931       O939   2.382       .  S
Zr931       O940   2.387       .  S
Zr931      O2405   2.404   1_455  S
O932      Zr1663   2.440   1_565  S
O932        H988   0.990   1_565  S
O932        H996   0.990       .  S
O933        C953   1.284       .  A
O934      Zr2395   2.452       .  S
O934        C955   1.286       .  A
O935      Zr1311   2.428       .  S
O935        C954   1.285       .  A
O936      Zr1310   2.435       .  S
O936        C955   1.286       .  A
O937        C954   1.290       .  A
O938      Zr1312   2.414       .  S
O938        C953   1.281       .  A
O939      Zr2774   2.391   1_455  S
O939      Zr1312   2.383       .  S
O940      Zr1312   2.370       .  S
O940        H975   0.966       .  S
O941      Zr2395   2.404       .  S
O941      Zr1310   2.395       .  S
O941        H978   0.965       .  S
O942      Zr1311   2.396   1_655  S
O942      Zr2425   2.397       .  S
Zr943      O1700   2.443   1_565  S
Zr943       O962   2.427       .  S
Zr943      O2434   2.421       .  S
Zr943      O2413   2.405       .  S
Zr943       O951   2.376       .  S
Zr943       O952   2.383       .  S
Zr944       O963   2.437       .  S
Zr944       O956   2.433       .  S
Zr944      O1302   2.393   1_554  S
Zr944       O957   2.409       .  S
Zr944      O2769   2.395   1_554  S
Zr944      O1307   2.397   1_554  S
Zr944       O950   2.387       .  S
Zr945      O1313   2.434   1_556  S
Zr945       O969   2.438       .  S
Zr945      O1301   2.419       .  S
Zr945       O971   2.445   1_556  S
Zr945      O1308   2.399       .  S
Zr945       O949   2.381   1_556  S
Zr945      O2416   2.383   1_456  S
Zr946       O972   2.436       .  S
Zr946       O973   2.436       .  S
Zr946       O948   2.437       .  S
Zr946      O1304   2.387   1_554  S
Zr946      O1305   2.385   1_554  S
Zr946      O1306   2.378   1_554  S
Zr946      O2414   2.379       .  S
O947      Zr1311   2.435       .  S
O947        H984   0.990       .  S
O948        H979   0.990       .  S
O948       H1359   0.990   1_554  S
O949      Zr2407   2.405   1_455  S
O950      Zr2410   2.388       .  S
O950        H976   0.966       .  S
O951      Zr1327   2.376   1_554  S
O952      Zr2409   2.379   1_554  S
O952      Zr1327   2.376   1_554  S
O952        H977   0.966       .  S
C953       C1012   1.475       .  S
C954       C1016   1.491       .  S
C955       C1020   1.489       .  S
O956       H1358   0.990       .  S
O957        C959   1.281       .  A
O958        C959   1.287       .  A
C959       C1007   1.477       .  S
O960       Zr961   2.441       .  S
O960        H989   0.990       .  S
Zr961       O964   2.437       .  S
Zr961       O965   2.441       .  S
Zr961      O1332   2.407       .  S
Zr961      O2406   2.391       .  S
Zr961      O1317   2.381   1_565  S
Zr961      O1318   2.374       .  S
O962        C967   1.283       .  A
O963        H980   0.990       .  S
O963       H1361   0.990   1_554  S
O964       H1347   0.990       .  S
O965        H985   0.990       .  S
O965       H1360   0.989       .  S
O966      Zr1327   2.419   1_554  S
O966        C967   1.283       .  A
C967       C1024   1.472       .  S
O968      Zr1675   2.445   1_455  S
O968        H987   0.990       .  S
O968        H991   0.990       .  S
O969        H983   0.990       .  S
O969       H1356   0.990       .  S
O970      Zr2407   2.419   1_455  S
O970        C974   1.280       .  A
O971        C974   1.289       .  A
O972        H982   0.990       .  S
O973        H986   0.990       .  S
C974       C1003   1.481       .  S
H981       O1330   0.990   1_554  S
H990       O1335   0.990       .  S
H992       O1322   0.990       .  S
H993       O1314   0.990       .  S
H994       O1331   0.989   1_554  S
H995       O1329   0.990       .  S
C997       C1023   1.528       .  S
C997       C1043   1.527       .  S
C997       C1068   1.524       .  S
C997       C1092   1.535       .  S
C998       C1019   1.535       .  S
C998       C1036   1.525       .  S
C998       C1059   1.522       .  S
C998       C1083   1.537       .  S
C999       C1015   1.540       .  S
C999       C1031   1.535       .  S
C999       C1051   1.529       .  S
C999       C1075   1.540       .  S
C1000      C1011   1.529       .  S
C1000      C1048   1.523       .  S
C1000      C1064   1.528       .  S
C1000      C1088   1.520       .  S
C1001      C1008   1.533       .  S
C1001      C1039   1.531       .  S
C1001      C1072   1.524       .  S
C1001      C1079   1.531       .  S
C1002      C1004   1.529       .  S
C1002      C1028   1.517       .  S
C1002      C1055   1.516       .  S
C1002      C1095   1.535       .  S
C1003      C1004   1.344       .  D
C1003      H1005   1.087       .  S
C1004      H1006   1.089       .  S
C1007      C1008   1.353       .  D
C1007      H1009   1.083       .  S
C1008      H1010   1.089       .  S
C1011      C1012   1.351       .  D
C1011      H1013   1.088       .  S
C1012      H1014   1.087       .  S
C1015      C1016   1.355       .  D
C1015      H1017   1.089       .  S
C1016      H1018   1.086       .  S
C1019      C1020   1.350       .  D
C1019      H1021   1.089       .  S
C1020      H1022   1.086       .  S
C1023      C1024   1.349       .  D
C1023      H1025   1.089       .  S
C1024      H1026   1.087       .  S
C1027      C1028   1.334       .  D
C1027      H1029   1.085       .  S
C1028      H1030   1.090       .  S
C1031      C1032   1.347       .  D
C1031      H1033   1.089       .  S
C1032      H1034   1.083       .  S
C1035      C1036   1.345       .  D
C1035      H1037   1.085       .  S
C1036      H1038   1.090       .  S
C1039      C1040   1.345       .  D
C1039      H1041   1.089       .  S
C1040      H1042   1.086       .  S
C1043      C1044   1.343       .  D
C1043      H1045   1.089       .  S
C1044      H1046   1.081       .  S
C1047      C1048   1.345       .  D
C1047      H1049   1.082       .  S
C1048      H1050   1.089       .  S
C1051      C1052   1.350       .  D
C1051      H1053   1.087       .  S
C1052      H1054   1.084       .  S
C1055      C1056   1.348       .  D
C1055      H1057   1.087       .  S
C1056      H1058   1.087       .  S
C1059      C1060   1.346       .  D
C1059      H1061   1.087       .  S
C1060      H1062   1.087       .  S
C1063      C1064   1.347       .  D
C1063      H1065   1.082       .  S
C1064      H1066   1.088       .  S
C1067      C1068   1.347       .  D
C1067      H1069   1.085       .  S
C1068      H1070   1.087       .  S
C1071      C1072   1.339       .  D
C1071      H1073   1.087       .  S
C1072      H1074   1.087       .  S
C1075      C1076   1.358       .  D
C1075      H1077   1.087       .  S
C1076      H1078   1.082       .  S
C1079      C1080   1.345       .  D
C1079      H1081   1.087       .  S
C1080      H1082   1.082       .  S
C1083      C1084   1.343       .  D
C1083      H1085   1.088       .  S
C1084      H1086   1.086       .  S
C1087      C1088   1.348       .  D
C1087      H1089   1.085       .  S
C1088      H1090   1.087       .  S
C1091      C1092   1.348       .  D
C1091      H1093   1.084       .  S
C1092      H1094   1.088       .  S
C1095      C1096   1.340       .  D
C1095      H1097   1.088       .  S
C1096      H1098   1.086       .  S
Zr1099     O1100   2.437       .  S
Zr1099     O1101   2.414       .  S
Zr1099     O1102   2.433       .  S
Zr1099     O1105   2.442       .  S
Zr1099     O1107   2.381       .  S
Zr1099     O1108   2.381       .  S
Zr1099     O1109   2.404       .  S
Zr1099     O1110   2.402       .  S
O1100      H1156   0.990       .  S
O1100      H1164   0.990       .  S
O1101      C1121   1.279       .  A
O1102      C1123   1.283       .  A
O1103      C1122   1.286       .  A
O1104     Zr1112   2.402       .  S
O1104      C1123   1.280       .  A
O1105      C1122   1.285       .  A
O1106      C1121   1.289       .  A
O1107     Zr1112   2.383       .  S
O1108      H1143   0.966       .  S
O1109     Zr1112   2.392       .  S
O1109     Zr1129   2.395       .  S
O1109      H1146   0.966       .  S
O1110     Zr1129   2.404       .  S
Zr1111     O1136   2.444       .  S
Zr1111     O1130   2.444       .  S
Zr1111     O1138   2.446       .  S
Zr1111     O1126   2.466       .  S
Zr1111     O1117   2.410       .  S
Zr1111     O1118   2.406       .  S
Zr1111     O1119   2.381       .  S
Zr1111     O1120   2.386       .  S
Zr1112     O1131   2.438       .  S
Zr1113     O1137   2.438       .  S
Zr1113     O1139   2.414       .  S
Zr1113     O1117   2.390       .  S
Zr1113     O1120   2.379       .  S
Zr1114     O1140   2.437       .  S
Zr1114     O1141   2.435       .  S
Zr1114     O1116   2.436       .  S
Zr1114     O1117   2.394       .  S
Zr1114     O1118   2.389       .  S
O1115      H1152   0.990       .  S
O1116      H1147   0.990       .  S
O1118      H1144   0.966       .  S
O1120      H1145   0.966       .  S
C1121      C1450   1.478       .  S
C1122      C1446   1.487       .  S
C1123      C1453   1.469       .  S
O1125      C1127   1.282       .  A
O1126      C1127   1.290       .  A
C1127      C1442   1.487       .  S
O1128     Zr1129   2.440       .  S
O1128      H1157   0.990       .  S
Zr1129     O1132   2.437       .  S
Zr1129     O1133   2.439       .  S
O1130      C1135   1.287       .  A
O1131      H1148   0.990       .  S
O1131      H1163   0.990       .  S
O1132      H1149   0.990       .  S
O1133      H1153   0.990       .  S
O1134      C1135   1.281       .  A
C1135      C1462   1.472       .  S
O1136      H1155   0.990       .  S
O1136      H1159   0.990       .  S
O1137      H1151   0.990       .  S
O1138      C1142   1.286       .  A
O1139      C1142   1.283       .  A
O1140      H1150   0.990       .  S
O1141      H1154   0.990       .  S
C1142      C1457   1.473       .  S
Zr1165     O1166   2.437       .  S
Zr1165     O1167   2.418       .  S
Zr1165     O1168   2.431       .  S
Zr1165     O1171   2.431       .  S
Zr1165     O1173   2.381       .  S
Zr1165     O1174   2.380       .  S
Zr1165     O1175   2.404       .  S
Zr1165     O1176   2.405       .  S
O1166      H1222   0.990       .  S
O1166      H1230   0.990       .  S
O1167      C1187   1.281       .  A
O1168      C1189   1.283       .  A
O1169     Zr2643   2.409       .  S
O1169      C1188   1.283       .  A
O1170     Zr1178   2.423       .  S
O1170      C1189   1.284       .  A
O1171      C1188   1.283       .  A
O1172     Zr2644   2.448       .  S
O1172      C1187   1.288       .  A
O1173     Zr1178   2.382       .  S
O1173     Zr2644   2.373       .  S
O1174     Zr2643   2.379       .  S
O1174     Zr2644   2.360       .  S
O1174      H1209   0.966       .  S
O1175     Zr1178   2.391       .  S
O1175     Zr1195   2.399       .  S
O1175      H1212   0.966       .  S
O1176     Zr2643   2.390       .  S
O1176     Zr1195   2.408       .  S
Zr1177     O1202   2.438       .  S
Zr1177     O1196   2.415       .  S
Zr1177     O1204   2.432       .  S
Zr1177     O1192   2.432       .  S
Zr1177     O1183   2.404       .  S
Zr1177     O1184   2.406       .  S
Zr1177     O1185   2.380       .  S
Zr1177     O1186   2.378       .  S
Zr1178     O1197   2.437       .  S
Zr1178     O2654   2.435       .  S
Zr1178     O2655   2.410       .  S
Zr1178     O2648   2.393       .  S
Zr1178     O2649   2.384       .  S
Zr1179     O2645   2.435   1_455  S
Zr1179     O1203   2.437       .  S
Zr1179     O2633   2.407   1_455  S
Zr1179     O1205   2.408       .  S
Zr1179     O2638   2.377   1_455  S
Zr1179     O2640   2.390   1_455  S
Zr1179     O1183   2.388       .  S
Zr1179     O1186   2.375       .  S
Zr1180     O1206   2.435       .  S
Zr1180     O1207   2.435       .  S
Zr1180     O1182   2.435       .  S
Zr1180     O2636   2.450   1_455  S
Zr1180     O2637   2.371   1_455  S
Zr1180     O2638   2.359   1_455  S
Zr1180     O1183   2.406       .  S
Zr1180     O1184   2.399       .  S
O1181     Zr2643   2.435       .  S
O1181      H1218   0.990       .  S
O1182      H1213   0.990       .  S
O1182      H2691   0.990   1_455  S
O1184     Zr2642   2.392   1_455  S
O1184      H1210   0.966       .  S
O1185     Zr2642   2.384   1_455  S
O1185     Zr2659   2.375   1_455  S
O1186     Zr2659   2.366   1_455  S
O1186      H1211   0.965       .  S
C1187      C1437   1.480       .  S
C1188      C1426   1.472       .  S
C1189      C1433   1.476       .  S
O1190     Zr2642   2.434   1_455  S
O1190      H2690   0.990   1_455  S
O1191     Zr2642   2.414   1_455  S
O1191      C1193   1.283       .  A
O1192      C1193   1.284       .  A
C1193      C1422   1.475       .  S
O1194     Zr1195   2.439       .  S
O1194      H1223   0.990       .  S
Zr1195     O1198   2.436       .  S
Zr1195     O1199   2.440       .  S
Zr1195     O2664   2.450       .  S
Zr1195     O2649   2.371       .  S
Zr1195     O2650   2.365       .  S
O1196      C1201   1.280       .  A
O1197      H1214   0.990       .  S
O1197      H1229   0.990       .  S
O1198      H1215   0.990       .  S
O1199      H1219   0.990       .  S
O1199      H2692   0.990       .  S
O1200     Zr2659   2.441   1_455  S
O1200      C1201   1.286       .  A
C1201      C1418   1.474       .  S
O1202      H1221   0.990       .  S
O1202      H1225   0.990       .  S
O1203      H1217   0.990       .  S
O1203      H2688   0.990   1_455  S
O1204      C1208   1.283       .  A
O1205      C1208   1.282       .  A
O1206      H1216   0.990       .  S
O1207      H1220   0.990       .  S
C1208      C1429   1.463       .  S
H1224      O2667   0.990       .  S
H1226      O2654   0.990       .  S
H1227      O2646   0.990       .  S
H1228      O2663   0.990   1_455  S
Zr1231     O1232   2.440       .  S
Zr1231     O1233   2.426       .  S
Zr1231     O1234   2.422       .  S
Zr1231     O1237   2.417       .  S
Zr1231     O1239   2.383       .  S
Zr1231     O1240   2.386       .  S
Zr1231     O1241   2.401       .  S
Zr1231     O1242   2.402       .  S
O1232      H1288   0.990       .  S
O1232      H1296   0.990       .  S
O1233      C1253   1.281       .  A
O1234      C1255   1.280       .  A
O1235     Zr1245   2.427       .  S
O1235      C1254   1.287       .  A
O1236     Zr1244   2.442       .  S
O1236      C1255   1.287       .  A
O1237      C1254   1.280       .  A
O1238      C1253   1.285       .  A
O1239     Zr1244   2.384       .  S
O1240     Zr1245   2.386       .  S
O1240      H1275   0.966       .  S
O1241     Zr1244   2.395       .  S
O1241     Zr1261   2.389       .  S
O1241      H1278   0.966       .  S
O1242     Zr1245   2.391       .  S
O1242     Zr1261   2.395       .  S
Zr1243     O1268   2.442       .  S
Zr1243     O1262   2.436       .  S
Zr1243     O1270   2.482       .  S
Zr1243     O1258   2.501       .  S
Zr1243     O1249   2.411       .  S
Zr1243     O1250   2.410       .  S
Zr1243     O1251   2.380       .  S
Zr1243     O1252   2.394       .  S
Zr1244     O1263   2.437       .  S
Zr1245     O1247   2.435       .  S
Zr1246     O1272   2.436       .  S
Zr1246     O1273   2.435       .  S
Zr1246     O1248   2.435       .  S
Zr1246     O1249   2.398       .  S
Zr1246     O1250   2.398       .  S
O1247      H1284   0.990       .  S
O1248      H1279   0.990       .  S
O1250      H1276   0.966       .  S
O1252      H1277   0.966       .  S
C1253      C1410   1.482       .  S
C1254      C1393   1.477       .  S
C1255      C1406   1.468       .  S
O1257      C1259   1.280       .  A
O1258      C1259   1.299       .  A
C1259      C1401   1.491       .  S
O1260     Zr1261   2.440       .  S
O1260      H1289   0.990       .  S
Zr1261     O1264   2.437       .  S
Zr1261     O1265   2.439       .  S
O1262      C1267   1.285       .  A
O1263      H1280   0.990       .  S
O1263      H1295   0.990       .  S
O1264      H1281   0.990       .  S
O1265      H1285   0.990       .  S
O1266      C1267   1.285       .  A
C1267      C1413   1.482       .  S
O1268      H1287   0.990       .  S
O1268      H1291   0.990       .  S
O1269      H1283   0.990       .  S
O1270      C1274   1.294       .  A
O1271      C1274   1.284       .  A
O1272      H1282   0.990       .  S
O1273      H1286   0.990       .  S
C1274      C1398   1.491       .  S
Zr1297     O2030   2.439   1_455  S
Zr1297     O1299   2.481       .  S
Zr1297     O2764   2.502   1_455  S
Zr1297     O1305   2.377       .  S
Zr1297     O1306   2.388       .  S
Zr1297     O2771   2.415   1_455  S
O1298     Zr2029   2.437   1_565  S
O1298      H1354   0.990   1_565  S
O1298      H1362   0.990       .  S
O1299      C1319   1.294       .  A
O1300     Zr2761   2.499       .  S
O1300      C1321   1.296       .  A
O1301      C1320   1.284       .  A
O1302      C1321   1.275       .  A
O1303      C1320   1.291       .  A
O1304      C1319   1.273       .  A
O1305     Zr2408   2.390   1_456  S
O1306      H1341   0.966       .  S
O1307     Zr2761   2.419       .  S
O1307      H1344   0.966       .  S
O1308     Zr2791   2.390   1_455  S
Zr1309     O2066   2.445   1_565  S
Zr1309     O1328   2.445       .  S
Zr1309     O2800   2.420       .  S
Zr1309     O2779   2.408   1_565  S
Zr1309     O1317   2.377   1_565  S
Zr1309     O1318   2.386       .  S
Zr1310     O1329   2.436       .  S
Zr1310     O1322   2.435       .  S
Zr1310     O1323   2.426       .  S
Zr1310     O2403   2.391       .  S
Zr1310     O1316   2.397       .  S
Zr1311     O1335   2.438       .  S
Zr1311     O1337   2.440       .  S
Zr1311     O1315   2.386       .  S
Zr1311     O2782   2.384   1_455  S
Zr1312     O1338   2.436       .  S
Zr1312     O1339   2.435       .  S
Zr1312     O1314   2.436       .  S
Zr1312     O2780   2.388   1_455  S
O1313      H1350   0.990       .  S
O1314      H1345   0.990       .  S
O1315     Zr2773   2.408   1_455  S
O1316     Zr2776   2.388       .  S
O1316      H1342   0.966       .  S
O1318     Zr2775   2.379       .  S
O1318      H1343   0.966       .  S
C1319      C1378   1.471       .  S
C1320      C1382   1.488       .  S
C1321      C1386   1.480       .  S
O1323      C1325   1.286       .  A
O1324      C1325   1.281       .  A
C1325      C1373   1.469       .  S
O1326     Zr1327   2.439       .  S
O1326      H1355   0.990       .  S
Zr1327     O1330   2.437       .  S
Zr1327     O1331   2.440       .  S
Zr1327     O2772   2.395       .  S
O1328      C1333   1.286       .  A
O1329      H1346   0.990       .  S
O1331      H1351   0.990       .  S
O1332      C1333   1.281       .  A
C1333      C1390   1.481       .  S
O1334     Zr2041   2.442   1_455  S
O1334      H1353   0.990       .  S
O1334      H1357   0.990       .  S
O1335      H1349   0.990       .  S
O1336     Zr2773   2.419   1_455  S
O1336      C1340   1.280       .  A
O1337      C1340   1.289       .  A
O1338      H1348   0.990       .  S
O1339      H1352   0.990       .  S
C1340      C1369   1.478       .  S
C1363      C1389   1.532       .  S
C1363      C1409   1.535       .  S
C1363      C1434   1.522       .  S
C1363      C1458   1.526       .  S
C1364      C1385   1.541       .  S
C1364      C1402   1.556       .  S
C1364      C1425   1.517       .  S
C1364      C1449   1.533       .  S
C1365      C1381   1.539       .  S
C1365      C1397   1.540       .  S
C1365      C1417   1.525       .  S
C1365      C1441   1.535       .  S
C1366      C1377   1.534       .  S
C1366      C1414   1.540       .  S
C1366      C1430   1.516       .  S
C1366      C1454   1.519       .  S
C1367      C1374   1.522       .  S
C1367      C1405   1.527       .  S
C1367      C1438   1.528       .  S
C1367      C1445   1.537       .  S
C1368      C1370   1.533       .  S
C1368      C1394   1.521       .  S
C1368      C1421   1.526       .  S
C1368      C1461   1.525       .  S
C1369      C1370   1.343       .  D
C1369      H1371   1.086       .  S
C1370      H1372   1.088       .  S
C1373      C1374   1.345       .  D
C1373      H1375   1.087       .  S
C1374      H1376   1.089       .  S
C1377      C1378   1.339       .  D
C1377      H1379   1.089       .  S
C1378      H1380   1.087       .  S
C1381      C1382   1.358       .  D
C1381      H1383   1.088       .  S
C1382      H1384   1.086       .  S
C1385      C1386   1.349       .  D
C1385      H1387   1.089       .  S
C1386      H1388   1.086       .  S
C1389      C1390   1.353       .  D
C1389      H1391   1.086       .  S
C1390      H1392   1.086       .  S
C1393      C1394   1.342       .  D
C1393      H1395   1.084       .  S
C1394      H1396   1.087       .  S
C1397      C1398   1.354       .  D
C1397      H1399   1.089       .  S
C1398      H1400   1.083       .  S
C1401      C1402   1.355       .  D
C1401      H1403   1.081       .  S
C1402      H1404   1.088       .  S
C1405      C1406   1.341       .  D
C1405      H1407   1.089       .  S
C1406      H1408   1.082       .  S
C1409      C1410   1.347       .  D
C1409      H1411   1.086       .  S
C1410      H1412   1.083       .  S
C1413      C1414   1.351       .  D
C1413      H1415   1.081       .  S
C1414      H1416   1.087       .  S
C1417      C1418   1.343       .  D
C1417      H1419   1.088       .  S
C1418      H1420   1.084       .  S
C1421      C1422   1.350       .  D
C1421      H1423   1.086       .  S
C1422      H1424   1.084       .  S
C1425      C1426   1.347       .  D
C1425      H1427   1.088       .  S
C1426      H1428   1.086       .  S
C1429      C1430   1.340       .  D
C1429      H1431   1.082       .  S
C1430      H1432   1.091       .  S
C1433      C1434   1.347       .  D
C1433      H1435   1.085       .  S
C1434      H1436   1.088       .  S
C1437      C1438   1.344       .  D
C1437      H1439   1.085       .  S
C1438      H1440   1.088       .  S
C1441      C1442   1.356       .  D
C1441      H1443   1.088       .  S
C1442      H1444   1.081       .  S
C1445      C1446   1.349       .  D
C1445      H1447   1.088       .  S
C1446      H1448   1.083       .  S
C1449      C1450   1.341       .  D
C1449      H1451   1.090       .  S
C1450      H1452   1.083       .  S
C1453      C1454   1.349       .  D
C1453      H1455   1.084       .  S
C1454      H1456   1.087       .  S
C1457      C1458   1.348       .  D
C1457      H1459   1.082       .  S
C1458      H1460   1.088       .  S
C1461      C1462   1.341       .  D
C1461      H1463   1.087       .  S
C1462      H1464   1.086       .  S
Zr1465     O1466   2.436       .  S
Zr1465     O1467   2.412       .  S
Zr1465     O1468   2.436       .  S
Zr1465     O1471   2.436       .  S
Zr1465     O1473   2.380       .  S
Zr1465     O1474   2.381       .  S
Zr1465     O1475   2.403       .  S
Zr1465     O1476   2.404       .  S
O1466      H1522   0.990       .  S
O1466      H1530   0.990       .  S
O1467      C1487   1.280       .  A
O1468      C1489   1.285       .  A
O1469     Zr2211   2.433   1_545  S
O1469      C1488   1.287       .  A
O1470     Zr1478   2.399   1_545  S
O1470      C1489   1.279       .  A
O1471      C1488   1.285       .  A
O1472     Zr2212   2.449   1_545  S
O1472      C1487   1.288       .  A
O1473     Zr1478   2.382   1_545  S
O1473     Zr2212   2.370   1_545  S
O1474     Zr2211   2.377   1_545  S
O1474     Zr2212   2.363   1_545  S
O1474      H1509   0.966       .  S
O1475     Zr1478   2.391   1_545  S
O1475     Zr1495   2.396       .  S
O1475      H1512   0.966       .  S
O1476     Zr2211   2.387   1_545  S
O1476     Zr1495   2.403       .  S
Zr1477     O1502   2.440       .  S
Zr1477     O1496   2.414       .  S
Zr1477     O1504   2.434       .  S
Zr1477     O1492   2.443       .  S
Zr1477     O1483   2.399       .  S
Zr1477     O1484   2.398       .  S
Zr1477     O1485   2.379       .  S
Zr1477     O1486   2.385       .  S
Zr1478     O1497   2.438   1_565  S
Zr1478     O2222   2.436       .  S
Zr1478     O2223   2.400       .  S
Zr1478     O2216   2.389       .  S
Zr1478     O2217   2.379       .  S
Zr1479     O2213   2.436       .  S
Zr1479     O1503   2.437       .  S
Zr1479     O2201   2.427       .  S
Zr1479     O1505   2.417       .  S
Zr1479     O2206   2.389       .  S
Zr1479     O2208   2.384       .  S
Zr1479     O1483   2.393       .  S
Zr1479     O1486   2.386       .  S
Zr1480     O1506   2.436       .  S
Zr1480     O1507   2.434       .  S
Zr1480     O1482   2.436       .  S
Zr1480     O2204   2.406       .  S
Zr1480     O2205   2.378       .  S
Zr1480     O2206   2.379       .  S
Zr1480     O1483   2.389       .  S
Zr1480     O1484   2.391       .  S
O1481     Zr2211   2.435   1_545  S
O1481      H1518   0.990       .  S
O1482      H1513   0.990       .  S
O1482      H2259   0.990       .  S
O1484     Zr2210   2.395       .  S
O1484      H1510   0.966       .  S
O1485     Zr2210   2.382       .  S
O1485     Zr2227   2.364       .  S
O1486     Zr2227   2.368       .  S
O1486      H1511   0.966       .  S
C1487      C1816   1.479       .  S
C1488      C1812   1.485       .  S
C1489      C1819   1.468       .  S
O1490     Zr2210   2.435       .  S
O1490      H2258   0.990       .  S
O1491     Zr2210   2.405       .  S
O1491      C1493   1.282       .  A
O1492      C1493   1.286       .  A
C1493      C1808   1.478       .  S
O1494     Zr1495   2.439       .  S
O1494      H1523   0.990       .  S
Zr1495     O1498   2.437       .  S
Zr1495     O1499   2.439       .  S
Zr1495     O2232   2.433   1_545  S
Zr1495     O2217   2.371   1_545  S
Zr1495     O2218   2.371   1_545  S
O1496      C1501   1.280       .  A
O1497      H1514   0.990       .  S
O1497      H1529   0.990       .  S
O1498      H1515   0.990   1_545  S
O1499      H1519   0.990   1_545  S
O1499      H2260   0.990   1_545  S
O1500     Zr2227   2.464       .  S
O1500      C1501   1.291       .  A
C1501      C1828   1.485       .  S
O1502      H1521   0.990       .  S
O1502      H1525   0.990       .  S
O1503      H1517   0.990       .  S
O1503      H2256   0.990       .  S
O1504      C1508   1.285       .  A
O1505      C1508   1.284       .  A
O1506      H1516   0.990       .  S
O1507      H1520   0.990       .  S
C1508      C1823   1.474       .  S
H1524      O2235   0.990   1_545  S
H1526      O2222   0.990   1_545  S
H1527      O2214   0.990   1_545  S
H1528      O2231   0.989       .  S
Zr1531     O1532   2.436       .  S
Zr1531     O1533   2.401       .  S
Zr1531     O1534   2.442       .  S
Zr1531     O1537   2.462       .  S
Zr1531     O1539   2.387       .  S
Zr1531     O1540   2.378       .  S
Zr1531     O1541   2.408       .  S
Zr1531     O1542   2.401       .  S
O1532      H1588   0.990       .  S
O1532      H1596   0.990       .  S
O1533      C1553   1.278       .  A
O1534      C1555   1.286       .  A
O1535      C1554   1.277       .  A
O1536     Zr1544   2.407   1_655  S
O1536      C1555   1.281       .  A
O1537      C1554   1.290       .  A
O1538      C1553   1.291       .  A
O1539     Zr1544   2.385   1_655  S
O1540      H1575   0.965       .  S
O1541     Zr1544   2.399   1_655  S
O1541     Zr1561   2.394       .  S
O1541      H1578   0.966       .  S
O1542     Zr1561   2.406       .  S
Zr1543     O1568   2.438       .  S
Zr1543     O1562   2.414       .  S
Zr1543     O1570   2.446       .  S
Zr1543     O1558   2.448       .  S
Zr1543     O1549   2.404       .  S
Zr1543     O1550   2.407       .  S
Zr1543     O1551   2.377       .  S
Zr1543     O1552   2.382       .  S
Zr1544     O1563   2.437   1_455  S
Zr1545     O1569   2.437       .  S
Zr1545     O1571   2.391       .  S
Zr1545     O1549   2.392       .  S
Zr1545     O1552   2.376       .  S
Zr1546     O1572   2.435       .  S
Zr1546     O1573   2.435       .  S
Zr1546     O1548   2.436       .  S
Zr1546     O1549   2.404       .  S
Zr1546     O1550   2.405       .  S
O1547      H1584   0.990   1_655  S
O1548      H1579   0.990       .  S
O1550      H1576   0.966       .  S
O1552      H1577   0.966       .  S
C1553      C1803   1.478       .  S
C1554      C1792   1.463       .  S
C1555      C1799   1.474       .  S
O1557      C1559   1.285       .  A
O1558      C1559   1.287       .  A
C1559      C1788   1.481       .  S
O1560     Zr1561   2.440       .  S
O1560      H1589   0.990       .  S
Zr1561     O1564   2.437       .  S
Zr1561     O1565   2.439       .  S
O1562      C1567   1.280       .  A
O1563      H1580   0.990       .  S
O1563      H1595   0.990       .  S
O1564      H1581   0.990   1_655  S
O1565      H1585   0.990   1_655  S
O1566      C1567   1.285       .  A
C1567      C1784   1.471       .  S
O1568      H1587   0.990       .  S
O1568      H1591   0.990       .  S
O1569      H1583   0.990       .  S
O1570      C1574   1.286       .  A
O1571      C1574   1.279       .  A
O1572      H1582   0.990       .  S
O1573      H1586   0.990       .  S
C1574      C1795   1.474       .  S
Zr1597     O1598   2.440       .  S
Zr1597     O1599   2.425       .  S
Zr1597     O1600   2.431       .  S
Zr1597     O1603   2.428       .  S
Zr1597     O1605   2.388       .  S
Zr1597     O1606   2.382       .  S
Zr1597     O1607   2.404       .  S
Zr1597     O1608   2.399       .  S
O1598      H1654   0.990       .  S
O1598      H1662   0.990       .  S
O1599      C1619   1.281       .  A
O1600      C1621   1.282       .  A
O1601     Zr1611   2.439   1_554  S
O1601      C1620   1.288       .  A
O1602     Zr1610   2.434       .  S
O1602      C1621   1.285       .  A
O1603      C1620   1.282       .  A
O1604     Zr1978   2.414   1_554  S
O1604      C1619   1.282       .  A
O1605     Zr1610   2.391       .  S
O1605     Zr1978   2.376   1_554  S
O1606     Zr1611   2.375   1_554  S
O1606     Zr1978   2.371   1_554  S
O1606      H1641   0.966       .  S
O1607     Zr1610   2.399       .  S
O1607     Zr1627   2.390       .  S
O1607      H1644   0.966       .  S
O1608     Zr1611   2.388   1_554  S
O1608     Zr1627   2.396       .  S
Zr1609     O1634   2.445       .  S
Zr1609     O1628   2.426       .  S
Zr1609     O1636   2.431       .  S
Zr1609     O1624   2.439       .  S
Zr1609     O1615   2.398       .  S
Zr1609     O1616   2.401       .  S
Zr1609     O1617   2.379       .  S
Zr1609     O1618   2.384       .  S
Zr1610     O1629   2.437       .  S
Zr1610     O1988   2.436   1_554  S
Zr1610     O1989   2.440   1_554  S
Zr1610     O1982   2.396   1_554  S
Zr1610     O1983   2.388   1_554  S
Zr1611     O1613   2.435   1_556  S
Zr1611     O2001   2.437       .  S
Zr1611     O2003   2.420       .  S
Zr1611     O1981   2.397       .  S
Zr1611     O1984   2.383       .  S
Zr1612     O1638   2.435       .  S
Zr1612     O1639   2.436       .  S
Zr1612     O1614   2.437       .  S
Zr1612     O1970   2.415       .  S
Zr1612     O1971   2.372       .  S
Zr1612     O1972   2.373       .  S
Zr1612     O1615   2.390       .  S
Zr1612     O1616   2.393       .  S
O1613      H1650   0.990   1_554  S
O1614      H1645   0.990       .  S
O1614      H2025   0.990       .  S
O1615     Zr1977   2.393       .  S
O1616     Zr1976   2.392       .  S
O1616      H1642   0.966       .  S
O1617     Zr1976   2.386       .  S
O1617     Zr1993   2.372       .  S
O1618     Zr1977   2.378       .  S
O1618     Zr1993   2.375       .  S
O1618      H1643   0.966       .  S
C1619      C1776   1.466       .  S
C1620      C1759   1.483       .  S
C1621      C1772   1.470       .  S
O1622     Zr1976   2.436       .  S
O1622      H2024   0.990       .  S
O1623     Zr1976   2.432       .  S
O1623      C1625   1.285       .  A
O1624      C1625   1.286       .  A
C1625      C1767   1.480       .  S
O1626     Zr1627   2.440       .  S
O1626      H1655   0.990       .  S
Zr1627     O1630   2.437       .  S
Zr1627     O1631   2.440       .  S
Zr1627     O1998   2.419   1_554  S
Zr1627     O1983   2.372   1_554  S
Zr1627     O1984   2.372   1_554  S
O1628      C1633   1.282       .  A
O1629      H1646   0.990       .  S
O1629      H1661   0.990       .  S
O1630      H1647   0.990   1_554  S
O1631      H1651   0.990   1_554  S
O1631      H2026   0.990   1_554  S
O1632     Zr1993   2.416       .  S
O1632      C1633   1.282       .  A
C1633      C1779   1.464       .  S
O1634      H1653   0.990       .  S
O1634      H1657   0.990       .  S
O1635     Zr1977   2.437       .  S
O1635      H1649   0.990       .  S
O1635      H2022   0.990       .  S
O1636      C1640   1.283       .  A
O1637     Zr1977   2.422       .  S
O1637      C1640   1.284       .  A
O1638      H1648   0.990       .  S
O1639      H1652   0.990       .  S
C1640      C1764   1.467       .  S
H1656      O2001   0.990   1_554  S
H1658      O1988   0.990   1_554  S
H1659      O1980   0.990   1_554  S
H1660      O1997   0.990       .  S
Zr1663     O1665   2.440       .  S
Zr1663     O2401   2.454   1_545  S
Zr1663     O1671   2.385       .  S
Zr1663     O1672   2.391       .  S
Zr1663     O2406   2.413   1_545  S
O1664      H1720   0.990       .  S
O1664      H1728   0.990       .  S
O1665      C1685   1.285       .  A
O1666      C1687   1.294       .  A
O1667     Zr2043   2.409       .  S
O1667      C1686   1.282       .  A
O1668     Zr2042   2.396       .  S
O1668      C1687   1.276       .  A
O1669     Zr2395   2.434       .  S
O1669      C1686   1.284       .  A
O1670     Zr2044   2.427       .  S
O1670      C1685   1.283       .  A
O1671     Zr2044   2.382       .  S
O1672     Zr2775   2.392   1_545  S
O1672     Zr2044   2.366       .  S
O1672      H1707   0.966       .  S
O1673     Zr2042   2.403       .  S
O1673     Zr2425   2.385   1_545  S
O1673      H1710   0.965       .  S
O1674     Zr2395   2.405       .  S
O1674     Zr2043   2.393       .  S
Zr1675     O1694   2.412       .  S
Zr1675     O2422   2.448       .  S
Zr1675     O2414   2.393   1_655  S
Zr1675     O1683   2.379       .  S
Zr1675     O1684   2.390       .  S
Zr1676     O1695   2.437   1_554  S
Zr1676     O1688   2.434       .  S
Zr1676     O2034   2.376   1_554  S
Zr1676     O1689   2.395       .  S
Zr1676     O2039   2.394   1_554  S
Zr1676     O1682   2.381   1_655  S
Zr1676     O2415   2.373   1_545  S
Zr1677     O2045   2.435       .  S
Zr1677     O1701   2.439       .  S
Zr1677     O2033   2.430   1_554  S
Zr1677     O1703   2.419       .  S
Zr1677     O2770   2.383   1_554  S
Zr1677     O2040   2.391   1_554  S
Zr1677     O1681   2.392       .  S
Zr1678     O1704   2.435       .  S
Zr1678     O1705   2.435       .  S
Zr1678     O1680   2.437       .  S
Zr1678     O2036   2.428   1_554  S
Zr1678     O2037   2.370   1_554  S
Zr1678     O2038   2.367   1_554  S
Zr1678     O2413   2.398   1_545  S
O1679     Zr2043   2.435       .  S
O1679      H1716   0.990       .  S
O1680      H1711   0.990       .  S
O1680      H2091   0.990   1_554  S
O1681     Zr2410   2.382       .  S
O1682     Zr2407   2.405   1_445  S
O1682      H1708   0.966   1_455  S
O1683     Zr2408   2.380       .  S
O1683     Zr2059   2.374   1_554  S
O1684     Zr2059   2.369   1_554  S
O1684      H1709   0.966       .  S
C1685      C1744   1.483       .  S
C1686      C1748   1.473       .  S
C1687      C1752   1.470       .  S
O1688      H2090   0.990       .  S
O1689      C1691   1.278       .  A
O1690     Zr2407   2.428   1_545  S
O1690      C1691   1.281       .  A
C1691      C1739   1.467       .  S
O1692     Zr1693   2.439       .  S
O1692      H1721   0.990       .  S
Zr1693     O1696   2.437       .  S
Zr1693     O1697   2.439       .  S
Zr1693     O2064   2.420       .  S
Zr1693     O2405   2.388       .  S
Zr1693     O2049   2.372       .  S
Zr1693     O2050   2.372       .  S
O1694      C1699   1.280       .  A
O1695      H1712   0.990   1_556  S
O1695      H2093   0.990       .  S
O1696      H2079   0.990       .  S
O1697      H1717   0.990       .  S
O1697      H2092   0.990       .  S
O1698     Zr2059   2.454   1_554  S
O1698      C1699   1.288       .  A
C1699      C1756   1.477       .  S
O1700      H1719   0.990       .  S
O1700      H1723   0.990       .  S
O1701      H1715   0.990       .  S
O1701      H2088   0.990   1_554  S
O1702      C1706   1.283       .  A
O1703      C1706   1.285       .  A
O1704      H1714   0.990   1_554  S
O1705      H1718   0.990       .  S
C1706      C1735   1.474       .  S
H1713      O2062   0.990   1_554  S
H1722      O2067   0.990       .  S
H1724      O2054   0.990       .  S
H1725      O2046   0.990       .  S
H1726      O2063   0.989   1_554  S
H1727      O2061   0.990       .  S
C1729      C1755   1.535       .  S
C1729      C1775   1.519       .  S
C1729      C1800   1.522       .  S
C1729      C1824   1.532       .  S
C1730      C1751   1.539       .  S
C1730      C1768   1.535       .  S
C1730      C1791   1.526       .  S
C1730      C1815   1.534       .  S
C1731      C1747   1.524       .  S
C1731      C1763   1.526       .  S
C1731      C1783   1.520       .  S
C1731      C1807   1.529       .  S
C1732      C1743   1.535       .  S
C1732      C1780   1.521       .  S
C1732      C1796   1.527       .  S
C1732      C1820   1.517       .  S
C1733      C1740   1.518       .  S
C1733      C1771   1.530       .  S
C1733      C1804   1.525       .  S
C1733      C1811   1.534       .  S
C1734      C1736   1.525       .  S
C1734      C1760   1.532       .  S
C1734      C1787   1.534       .  S
C1734      C1827   1.534       .  S
C1735      C1736   1.347       .  D
C1735      H1737   1.086       .  S
C1736      H1738   1.089       .  S
C1739      C1740   1.349       .  D
C1739      H1741   1.087       .  S
C1740      H1742   1.089       .  S
C1743      C1744   1.352       .  D
C1743      H1745   1.088       .  S
C1744      H1746   1.087       .  S
C1747      C1748   1.349       .  D
C1747      H1749   1.089       .  S
C1748      H1750   1.087       .  S
C1751      C1752   1.344       .  D
C1751      H1753   1.088       .  S
C1752      H1754   1.086       .  S
C1755      C1756   1.346       .  D
C1755      H1757   1.088       .  S
C1756      H1758   1.087       .  S
C1759      C1760   1.346       .  D
C1759      H1761   1.085       .  S
C1760      H1762   1.088       .  S
C1763      C1764   1.344       .  D
C1763      H1765   1.090       .  S
C1764      H1766   1.082       .  S
C1767      C1768   1.352       .  D
C1767      H1769   1.082       .  S
C1768      H1770   1.088       .  S
C1771      C1772   1.343       .  D
C1771      H1773   1.089       .  S
C1772      H1774   1.081       .  S
C1775      C1776   1.342       .  D
C1775      H1777   1.090       .  S
C1776      H1778   1.081       .  S
C1779      C1780   1.343       .  D
C1779      H1781   1.081       .  S
C1780      H1782   1.089       .  S
C1783      C1784   1.343       .  D
C1783      H1785   1.088       .  S
C1784      H1786   1.084       .  S
C1787      C1788   1.348       .  D
C1787      H1789   1.089       .  S
C1788      H1790   1.082       .  S
C1791      C1792   1.336       .  D
C1791      H1793   1.089       .  S
C1792      H1794   1.087       .  S
C1795      C1796   1.353       .  D
C1795      H1797   1.080       .  S
C1796      H1798   1.088       .  S
C1799      C1800   1.351       .  D
C1799      H1801   1.084       .  S
C1800      H1802   1.087       .  S
C1803      C1804   1.340       .  D
C1803      H1805   1.085       .  S
C1804      H1806   1.088       .  S
C1807      C1808   1.350       .  D
C1807      H1809   1.088       .  S
C1808      H1810   1.082       .  S
C1811      C1812   1.347       .  D
C1811      H1813   1.088       .  S
C1812      H1814   1.084       .  S
C1815      C1816   1.343       .  D
C1815      H1817   1.087       .  S
C1816      H1818   1.082       .  S
C1819      C1820   1.350       .  D
C1819      H1821   1.084       .  S
C1820      H1822   1.087       .  S
C1823      C1824   1.348       .  D
C1823      H1825   1.081       .  S
C1824      H1826   1.088       .  S
C1827      C1828   1.344       .  D
C1827      H1829   1.089       .  S
C1828      H1830   1.084       .  S
Zr1831     O1832   2.437       .  S
Zr1831     O1833   2.407       .  S
Zr1831     O1834   2.434       .  S
Zr1831     O1837   2.431       .  S
Zr1831     O1839   2.383       .  S
Zr1831     O1840   2.384       .  S
Zr1831     O1841   2.396       .  S
Zr1831     O1842   2.396       .  S
O1832      H1888   0.990       .  S
O1832      H1896   0.990       .  S
O1833      C1853   1.278       .  A
O1834      C1855   1.284       .  A
O1835     Zr2577   2.394       .  S
O1835      C1854   1.280       .  A
O1836     Zr1844   2.422       .  S
O1836      C1855   1.284       .  A
O1837      C1854   1.284       .  A
O1838     Zr2578   2.463   1_545  S
O1838      C1853   1.292       .  A
O1839     Zr1844   2.386       .  S
O1839     Zr2578   2.370   1_545  S
O1840     Zr2577   2.379       .  S
O1840     Zr2578   2.357   1_545  S
O1840      H1875   0.966       .  S
O1841     Zr1844   2.394       .  S
O1841     Zr1861   2.385       .  S
O1841      H1878   0.966       .  S
O1842     Zr2577   2.395       .  S
O1842     Zr1861   2.391       .  S
Zr1843     O1868   2.442       .  S
Zr1843     O1862   2.426       .  S
Zr1843     O1870   2.435       .  S
Zr1843     O1858   2.472       .  S
Zr1843     O1849   2.409       .  S
Zr1843     O1850   2.401       .  S
Zr1843     O1851   2.378       .  S
Zr1843     O1852   2.390       .  S
Zr1844     O1863   2.436       .  S
Zr1844     O2588   2.436   1_545  S
Zr1844     O2589   2.416   1_545  S
Zr1844     O2582   2.390   1_545  S
Zr1844     O2583   2.390   1_545  S
Zr1845     O2579   2.435       .  S
Zr1845     O1869   2.437       .  S
Zr1845     O2567   2.429       .  S
Zr1845     O1871   2.420       .  S
Zr1845     O2572   2.382       .  S
Zr1845     O2574   2.389       .  S
Zr1845     O1849   2.394       .  S
Zr1845     O1852   2.381       .  S
Zr1846     O1872   2.435       .  S
Zr1846     O1873   2.437       .  S
Zr1846     O1848   2.434       .  S
Zr1846     O2570   2.444       .  S
Zr1846     O2571   2.373       .  S
Zr1846     O2572   2.368       .  S
Zr1846     O1849   2.396       .  S
Zr1846     O1850   2.402       .  S
O1847     Zr2577   2.435       .  S
O1847      H1884   0.990       .  S
O1848      H1879   0.990       .  S
O1848      H2625   0.990       .  S
O1850     Zr2576   2.390       .  S
O1850      H1876   0.966       .  S
O1851     Zr2576   2.383       .  S
O1851     Zr2593   2.375       .  S
O1852     Zr2593   2.371       .  S
O1852      H1877   0.966       .  S
C1853      C2182   1.484       .  S
C1854      C2178   1.466       .  S
C1855      C2185   1.473       .  S
O1856     Zr2576   2.435       .  S
O1856      H2624   0.990       .  S
O1857     Zr2576   2.401       .  S
O1857      C1859   1.280       .  A
O1858      C1859   1.292       .  A
C1859      C2174   1.490       .  S
O1860     Zr1861   2.438       .  S
O1860      H1889   0.990       .  S
Zr1861     O1864   2.437       .  S
Zr1861     O1865   2.438       .  S
Zr1861     O2598   2.405   1_545  S
Zr1861     O2583   2.380   1_545  S
Zr1861     O2584   2.371   1_545  S
O1862      C1867   1.282       .  A
O1863      H1880   0.990       .  S
O1863      H1895   0.990       .  S
O1864      H1881   0.990       .  S
O1865      H1885   0.990       .  S
O1865      H2626   0.990       .  S
O1866     Zr2593   2.433       .  S
O1866      C1867   1.285       .  A
C1867      C2194   1.469       .  S
O1868      H1887   0.990       .  S
O1868      H1891   0.990       .  S
O1869      H1883   0.990       .  S
O1869      H2622   0.990       .  S
O1870      C1874   1.284       .  A
O1871      C1874   1.285       .  A
O1872      H1882   0.990       .  S
O1873      H1886   0.990       .  S
C1874      C2189   1.476       .  S
H1890      O2601   0.990   1_545  S
H1892      O2588   0.990   1_545  S
H1893      O2580   0.990   1_545  S
H1894      O2597   0.990       .  S
Zr1897     O1898   2.439       .  S
Zr1897     O1899   2.441       .  S
Zr1897     O1900   2.438       .  S
Zr1897     O1903   2.439       .  S
Zr1897     O1905   2.379       .  S
Zr1897     O1906   2.382       .  S
Zr1897     O1907   2.411       .  S
Zr1897     O1908   2.409       .  S
O1898      H1954   0.990       .  S
O1898      H1962   0.991       .  S
O1899      C1919   1.287       .  A
O1900      C1921   1.285       .  A
O1901      C1920   1.287       .  A
O1902     Zr1910   2.417       .  S
O1902      C1921   1.283       .  A
O1903      C1920   1.285       .  A
O1904      C1919   1.277       .  A
O1905     Zr1910   2.379       .  S
O1906      H1941   0.966       .  S
O1907     Zr1910   2.393       .  S
O1907     Zr1927   2.394       .  S
O1907      H1944   0.966       .  S
O1908     Zr1927   2.408       .  S
Zr1909     O1934   2.442       .  S
Zr1909     O1928   2.439       .  S
Zr1909     O1936   2.452       .  S
Zr1909     O1924   2.457       .  S
Zr1909     O1915   2.406       .  S
Zr1909     O1916   2.409       .  S
Zr1909     O1917   2.381       .  S
Zr1909     O1918   2.384       .  S
Zr1910     O1929   2.436       .  S
Zr1911     O1935   2.439       .  S
Zr1911     O1937   2.410       .  S
Zr1911     O1915   2.390       .  S
Zr1911     O1918   2.391       .  S
Zr1912     O1938   2.436       .  S
Zr1912     O1939   2.434       .  S
Zr1912     O1914   2.437       .  S
Zr1912     O1915   2.396       .  S
Zr1912     O1916   2.390       .  S
O1913      H1950   0.990       .  S
O1914      H1945   0.990       .  S
O1916      H1942   0.966       .  S
O1918      H1943   0.966       .  S
C1919      C2169   1.465       .  S
C1920      C2158   1.482       .  S
C1921      C2165   1.477       .  S
O1923      C1925   1.282       .  A
O1924      C1925   1.289       .  A
C1925      C2154   1.478       .  S
O1926     Zr1927   2.439       .  S
O1926      H1955   0.990       .  S
Zr1927     O1930   2.437       .  S
Zr1927     O1931   2.443       .  S
O1928      C1933   1.286       .  A
O1929      H1946   0.990       .  S
O1929      H1961   0.990       .  S
O1930      H1947   0.990       .  S
O1931      H1951   0.990       .  S
O1932      C1933   1.283       .  A
C1933      C2150   1.477       .  S
O1934      H1953   0.990       .  S
O1934      H1957   0.990       .  S
O1935      H1949   0.990       .  S
O1936      C1940   1.288       .  A
O1937      C1940   1.282       .  A
O1938      H1948   0.990       .  S
O1939      H1952   0.990       .  S
C1940      C2161   1.476       .  S
Zr1963     O1964   2.440       .  S
Zr1963     O1965   2.425       .  S
Zr1963     O1966   2.416       .  S
Zr1963     O1969   2.431       .  S
Zr1963     O1971   2.388       .  S
Zr1963     O1972   2.381       .  S
Zr1963     O1973   2.405       .  S
Zr1963     O1974   2.396       .  S
O1964      H2020   0.990       .  S
O1964      H2028   0.990       .  S
O1965      C1985   1.281       .  A
O1966      C1987   1.279       .  A
O1967     Zr1977   2.428       .  S
O1967      C1986   1.286       .  A
O1968     Zr1976   2.425       .  S
O1968      C1987   1.283       .  A
O1969      C1986   1.283       .  A
O1970      C1985   1.283       .  A
O1971     Zr1976   2.389       .  S
O1972     Zr1977   2.380       .  S
O1972      H2007   0.966       .  S
O1973     Zr1976   2.399       .  S
O1973     Zr1993   2.388       .  S
O1973      H2010   0.966       .  S
O1974     Zr1977   2.387       .  S
O1974     Zr1993   2.396       .  S
Zr1975     O2000   2.440       .  S
Zr1975     O1994   2.423       .  S
Zr1975     O2002   2.460       .  S
Zr1975     O1990   2.456       .  S
Zr1975     O1981   2.403       .  S
Zr1975     O1982   2.406       .  S
Zr1975     O1983   2.383       .  S
Zr1975     O1984   2.387       .  S
Zr1976     O1995   2.437       .  S
Zr1977     O1979   2.435       .  S
Zr1978     O2004   2.435       .  S
Zr1978     O2005   2.435       .  S
Zr1978     O1980   2.436       .  S
Zr1978     O1981   2.394       .  S
Zr1978     O1982   2.392       .  S
O1979      H2016   0.990       .  S
O1980      H2011   0.990   1_556  S
O1982      H2008   0.966       .  S
O1984      H2009   0.966       .  S
C1985      C2142   1.478       .  S
C1986      C2125   1.483       .  S
C1987      C2138   1.457       .  S
O1989      C1991   1.287       .  A
O1990      C1991   1.290       .  A
C1991      C2133   1.490       .  S
O1992     Zr1993   2.439       .  S
O1992      H2021   0.990       .  S
Zr1993     O1996   2.437       .  S
Zr1993     O1997   2.439       .  S
O1994      C1999   1.281       .  A
O1995      H2012   0.990       .  S
O1995      H2027   0.990       .  S
O1996      H2013   0.990       .  S
O1997      H2017   0.990       .  S
O1998      C1999   1.284       .  A
C1999      C2145   1.478       .  S
O2000      H2019   0.990       .  S
O2000      H2023   0.990       .  S
O2001      H2015   0.990   1_556  S
O2002      C2006   1.290       .  A
O2003      C2006   1.284       .  A
O2004      H2014   0.990   1_556  S
O2005      H2018   0.990       .  S
C2006      C2130   1.490       .  S
Zr2029     O2031   2.429       .  S
Zr2029     O2767   2.468   1_545  S
Zr2029     O2037   2.386       .  S
Zr2029     O2038   2.390       .  S
Zr2029     O2772   2.407   1_545  S
O2030      H2086   0.990   1_655  S
O2030      H2094   0.990       .  S
O2031      C2051   1.282       .  A
O2032      C2053   1.294       .  A
O2033      C2052   1.285       .  A
O2034      C2053   1.271       .  A
O2035     Zr2761   2.476       .  S
O2035      C2052   1.293       .  A
O2036      C2051   1.285       .  A
O2038     Zr2409   2.388   1_545  S
O2038      H2073   0.966       .  S
O2039     Zr2791   2.394   1_545  S
O2039      H2076   0.966       .  S
O2040     Zr2761   2.423       .  S
Zr2041     O2060   2.426       .  S
Zr2041     O2788   2.418       .  S
Zr2041     O2780   2.405       .  S
Zr2041     O2049   2.383       .  S
Zr2041     O2050   2.378       .  S
Zr2042     O2061   2.438       .  S
Zr2042     O2054   2.434       .  S
Zr2042     O2055   2.422       .  S
Zr2042     O2048   2.384       .  S
Zr2042     O2781   2.382   1_545  S
Zr2043     O2067   2.438       .  S
Zr2043     O2069   2.427       .  S
Zr2043     O2404   2.389       .  S
Zr2043     O2047   2.384       .  S
Zr2044     O2070   2.436       .  S
Zr2044     O2071   2.435       .  S
Zr2044     O2046   2.435       .  S
Zr2044     O2779   2.397       .  S
O2045      H2082   0.990       .  S
O2046      H2077   0.990       .  S
O2047     Zr2776   2.395       .  S
O2048     Zr2773   2.400   1_545  S
O2048      H2074   0.966       .  S
O2049     Zr2774   2.387       .  S
O2050      H2075   0.966       .  S
C2051      C2110   1.481       .  S
C2052      C2114   1.498       .  S
C2053      C2118   1.467       .  S
O2055      C2057   1.284       .  A
O2056     Zr2773   2.445   1_545  S
O2056      C2057   1.285       .  A
C2057      C2105   1.484       .  S
O2058     Zr2059   2.440       .  S
O2058      H2087   0.990       .  S
Zr2059     O2062   2.437       .  S
Zr2059     O2063   2.441       .  S
Zr2059     O2771   2.409       .  S
O2060      C2065   1.282       .  A
O2061      H2078   0.990       .  S
O2063      H2083   0.990       .  S
O2064      C2065   1.283       .  A
C2065      C2122   1.477       .  S
O2066      H2085   0.990       .  S
O2066      H2089   0.990       .  S
O2067      H2081   0.990       .  S
O2068      C2072   1.283       .  A
O2069      C2072   1.285       .  A
O2070      H2080   0.990       .  S
O2071      H2084   0.990       .  S
C2072      C2101   1.475       .  S
C2095      C2121   1.535       .  S
C2095      C2141   1.529       .  S
C2095      C2166   1.526       .  S
C2095      C2190   1.528       .  S
C2096      C2117   1.539       .  S
C2096      C2134   1.541       .  S
C2096      C2157   1.530       .  S
C2096      C2181   1.538       .  S
C2097      C2113   1.553       .  S
C2097      C2129   1.536       .  S
C2097      C2149   1.528       .  S
C2097      C2173   1.531       .  S
C2098      C2109   1.535       .  S
C2098      C2146   1.532       .  S
C2098      C2162   1.527       .  S
C2098      C2186   1.523       .  S
C2099      C2106   1.529       .  S
C2099      C2137   1.528       .  S
C2099      C2170   1.521       .  S
C2099      C2177   1.519       .  S
C2100      C2102   1.528       .  S
C2100      C2126   1.529       .  S
C2100      C2153   1.525       .  S
C2100      C2193   1.522       .  S
C2101      C2102   1.347       .  D
C2101      H2103   1.086       .  S
C2102      H2104   1.089       .  S
C2105      C2106   1.351       .  D
C2105      H2107   1.086       .  S
C2106      H2108   1.088       .  S
C2109      C2110   1.349       .  D
C2109      H2111   1.086       .  S
C2110      H2112   1.086       .  S
C2113      C2114   1.360       .  D
C2113      H2115   1.088       .  S
C2114      H2116   1.085       .  S
C2117      C2118   1.342       .  D
C2117      H2119   1.088       .  S
C2118      H2120   1.086       .  S
C2121      C2122   1.349       .  D
C2121      H2123   1.087       .  S
C2122      H2124   1.087       .  S
C2125      C2126   1.347       .  D
C2125      H2127   1.086       .  S
C2126      H2128   1.088       .  S
C2129      C2130   1.355       .  D
C2129      H2131   1.088       .  S
C2130      H2132   1.084       .  S
C2133      C2134   1.357       .  D
C2133      H2135   1.084       .  S
C2134      H2136   1.087       .  S
C2137      C2138   1.342       .  D
C2137      H2139   1.089       .  S
C2138      H2140   1.080       .  S
C2141      C2142   1.346       .  D
C2141      H2143   1.086       .  S
C2142      H2144   1.080       .  S
C2145      C2146   1.347       .  D
C2145      H2147   1.081       .  S
C2146      H2148   1.086       .  S
C2149      C2150   1.344       .  D
C2149      H2151   1.087       .  S
C2150      H2152   1.086       .  S
C2153      C2154   1.353       .  D
C2153      H2155   1.088       .  S
C2154      H2156   1.085       .  S
C2157      C2158   1.344       .  D
C2157      H2159   1.087       .  S
C2158      H2160   1.084       .  S
C2161      C2162   1.350       .  D
C2161      H2163   1.082       .  S
C2162      H2164   1.088       .  S
C2165      C2166   1.349       .  D
C2165      H2167   1.080       .  S
C2166      H2168   1.087       .  S
C2169      C2170   1.337       .  D
C2169      H2171   1.086       .  S
C2170      H2172   1.088       .  S
C2173      C2174   1.358       .  D
C2173      H2175   1.084       .  S
C2174      H2176   1.085       .  S
C2177      C2178   1.349       .  D
C2177      H2179   1.088       .  S
C2178      H2180   1.087       .  S
C2181      C2182   1.342       .  D
C2181      H2183   1.087       .  S
C2182      H2184   1.082       .  S
C2185      C2186   1.347       .  D
C2185      H2187   1.084       .  S
C2186      H2188   1.088       .  S
C2189      C2190   1.347       .  D
C2189      H2191   1.079       .  S
C2190      H2192   1.088       .  S
C2193      C2194   1.342       .  D
C2193      H2195   1.089       .  S
C2194      H2196   1.082       .  S
Zr2197     O2198   2.441       .  S
Zr2197     O2199   2.472       .  S
Zr2197     O2200   2.427       .  S
Zr2197     O2203   2.424       .  S
Zr2197     O2205   2.376       .  S
Zr2197     O2206   2.378       .  S
Zr2197     O2207   2.417       .  S
Zr2197     O2208   2.415       .  S
O2198      H2254   0.991       .  S
O2198      H2262   0.990       .  S
O2199      C2219   1.291       .  A
O2200      C2221   1.280       .  A
O2201      C2220   1.285       .  A
O2202     Zr2210   2.415       .  S
O2202      C2221   1.282       .  A
O2203      C2220   1.281       .  A
O2204      C2219   1.277       .  A
O2205     Zr2210   2.385       .  S
O2206      H2241   0.966       .  S
O2207     Zr2210   2.391       .  S
O2207     Zr2227   2.408       .  S
O2207      H2244   0.966       .  S
O2208     Zr2227   2.412       .  S
Zr2209     O2234   2.439       .  S
Zr2209     O2228   2.432       .  S
Zr2209     O2236   2.444       .  S
Zr2209     O2224   2.467       .  S
Zr2209     O2215   2.412       .  S
Zr2209     O2216   2.407       .  S
Zr2209     O2217   2.377       .  S
Zr2209     O2218   2.388       .  S
Zr2210     O2229   2.438       .  S
Zr2211     O2235   2.437       .  S
Zr2211     O2237   2.416       .  S
Zr2211     O2215   2.395       .  S
Zr2211     O2218   2.384       .  S
Zr2212     O2238   2.435       .  S
Zr2212     O2239   2.435       .  S
Zr2212     O2214   2.436       .  S
Zr2212     O2215   2.401       .  S
Zr2212     O2216   2.405       .  S
O2213      H2250   0.990       .  S
O2214      H2245   0.990       .  S
O2216      H2242   0.966       .  S
O2218      H2243   0.966       .  S
C2219      C2548   1.477       .  S
C2220      C2544   1.479       .  S
C2221      C2551   1.471       .  S
O2223      C2225   1.280       .  A
O2224      C2225   1.291       .  A
C2225      C2540   1.487       .  S
O2226     Zr2227   2.440       .  S
O2226      H2255   0.990       .  S
Zr2227     O2230   2.437       .  S
Zr2227     O2231   2.440       .  S
O2228      C2233   1.283       .  A
O2229      H2246   0.990       .  S
O2229      H2261   0.990       .  S
O2230      H2247   0.990       .  S
O2231      H2251   0.990       .  S
O2232      C2233   1.286       .  A
C2233      C2560   1.482       .  S
O2234      H2253   0.990       .  S
O2234      H2257   0.990       .  S
O2235      H2249   0.990       .  S
O2236      C2240   1.287       .  A
O2237      C2240   1.284       .  A
O2238      H2248   0.990       .  S
O2239      H2252   0.990       .  S
C2240      C2555   1.480       .  S
Zr2263     O2264   2.437       .  S
Zr2263     O2265   2.418       .  S
Zr2263     O2266   2.440       .  S
Zr2263     O2269   2.423       .  S
Zr2263     O2271   2.380       .  S
Zr2263     O2272   2.382       .  S
Zr2263     O2273   2.401       .  S
Zr2263     O2274   2.402       .  S
O2264      H2320   0.990       .  S
O2264      H2328   0.990       .  S
O2265      C2285   1.280       .  A
O2266      C2287   1.284       .  A
O2267      C2286   1.284       .  A
O2268     Zr2276   2.404       .  S
O2268      C2287   1.281       .  A
O2269      C2286   1.282       .  A
O2270      C2285   1.290       .  A
O2271     Zr2276   2.386       .  S
O2272      H2307   0.966       .  S
O2273     Zr2276   2.391       .  S
O2273     Zr2293   2.397       .  S
O2273      H2310   0.966       .  S
O2274     Zr2293   2.398       .  S
Zr2275     O2300   2.440       .  S
Zr2275     O2294   2.399       .  S
Zr2275     O2302   2.450       .  S
Zr2275     O2290   2.449       .  S
Zr2275     O2281   2.394       .  S
Zr2275     O2282   2.399       .  S
Zr2275     O2283   2.380       .  S
Zr2275     O2284   2.387       .  S
Zr2276     O2295   2.437       .  S
Zr2277     O2301   2.438       .  S
Zr2277     O2303   2.402       .  S
Zr2277     O2281   2.395       .  S
Zr2277     O2284   2.381       .  S
Zr2278     O2304   2.435       .  S
Zr2278     O2305   2.435       .  S
Zr2278     O2280   2.437       .  S
Zr2278     O2281   2.384       .  S
Zr2278     O2282   2.390       .  S
O2279      H2316   0.990   1_655  S
O2280      H2311   0.990       .  S
O2282      H2308   0.966       .  S
O2284      H2309   0.966       .  S
C2285      C2535   1.481       .  S
C2286      C2524   1.470       .  S
C2287      C2531   1.475       .  S
O2289      C2291   1.283       .  A
O2290      C2291   1.287       .  A
C2291      C2520   1.477       .  S
O2292     Zr2293   2.439       .  S
O2292      H2321   0.990       .  S
Zr2293     O2296   2.437       .  S
Zr2293     O2297   2.439       .  S
O2294      C2299   1.278       .  A
O2295      H2312   0.990       .  S
O2295      H2327   0.990       .  S
O2296      H2313   0.990   1_655  S
O2297      H2317   0.990   1_655  S
O2298      C2299   1.290       .  A
C2299      C2516   1.474       .  S
O2300      H2319   0.990       .  S
O2300      H2323   0.990       .  S
O2301      H2315   0.990       .  S
O2302      C2306   1.287       .  A
O2303      C2306   1.281       .  A
O2304      H2314   0.990       .  S
O2305      H2318   0.990       .  S
C2306      C2527   1.479       .  S
Zr2329     O2330   2.438       .  S
Zr2329     O2331   2.429       .  S
Zr2329     O2332   2.445       .  S
Zr2329     O2335   2.413       .  S
Zr2329     O2337   2.376       .  S
Zr2329     O2338   2.385       .  S
Zr2329     O2339   2.404       .  S
Zr2329     O2340   2.411       .  S
O2330      H2386   0.990       .  S
O2330      H2394   0.990       .  S
O2331      C2351   1.282       .  A
O2332      C2353   1.285       .  A
O2333     Zr2343   2.444   1_554  S
O2333      C2352   1.289       .  A
O2334     Zr2342   2.433       .  S
O2334      C2353   1.285       .  A
O2335      C2352   1.280       .  A
O2336     Zr2710   2.435   1_554  S
O2336      C2351   1.285       .  A
O2337     Zr2342   2.381       .  S
O2337     Zr2710   2.372   1_554  S
O2338     Zr2343   2.380   1_554  S
O2338     Zr2710   2.371   1_554  S
O2338      H2373   0.966       .  S
O2339     Zr2342   2.391       .  S
O2339     Zr2359   2.409       .  S
O2339      H2376   0.966       .  S
O2340     Zr2343   2.387   1_554  S
O2340     Zr2359   2.400       .  S
Zr2341     O2366   2.442       .  S
Zr2341     O2360   2.428       .  S
Zr2341     O2368   2.441       .  S
Zr2341     O2356   2.435       .  S
Zr2341     O2347   2.399       .  S
Zr2341     O2348   2.410       .  S
Zr2341     O2349   2.383       .  S
Zr2341     O2350   2.382       .  S
Zr2342     O2361   2.436       .  S
Zr2342     O2720   2.434   1_554  S
Zr2342     O2721   2.410   1_554  S
Zr2342     O2714   2.400   1_554  S
Zr2342     O2715   2.391   1_554  S
Zr2343     O2345   2.436       .  S
Zr2343     O2733   2.438       .  S
Zr2343     O2735   2.427       .  S
Zr2343     O2713   2.400       .  S
Zr2343     O2716   2.389       .  S
Zr2344     O2370   2.435       .  S
Zr2344     O2371   2.436       .  S
Zr2344     O2346   2.437       .  S
Zr2344     O2702   2.427       .  S
Zr2344     O2703   2.373       .  S
Zr2344     O2704   2.368       .  S
Zr2344     O2347   2.397       .  S
Zr2344     O2348   2.396       .  S
O2345      H2382   0.990       .  S
O2346      H2377   0.990       .  S
O2346      H2757   0.990       .  S
O2347     Zr2709   2.390       .  S
O2348     Zr2708   2.393       .  S
O2348      H2374   0.966       .  S
O2349     Zr2708   2.387       .  S
O2349     Zr2725   2.368       .  S
O2350     Zr2709   2.374       .  S
O2350     Zr2725   2.377       .  S
O2350      H2375   0.966       .  S
C2351      C2508   1.473       .  S
C2352      C2491   1.476       .  S
C2353      C2504   1.483       .  S
O2354     Zr2708   2.436       .  S
O2354      H2756   0.990       .  S
O2355     Zr2708   2.423       .  S
O2355      C2357   1.286       .  A
O2356      C2357   1.284       .  A
C2357      C2499   1.477       .  S
O2358     Zr2359   2.440       .  S
O2358      H2387   0.990       .  S
Zr2359     O2362   2.436       .  S
Zr2359     O2363   2.441       .  S
Zr2359     O2730   2.441   1_554  S
Zr2359     O2715   2.373   1_554  S
Zr2359     O2716   2.377   1_554  S
O2360      C2365   1.282       .  A
O2361      H2378   0.990       .  S
O2361      H2393   0.990       .  S
O2362      H2379   0.990   1_554  S
O2363      H2383   0.990   1_554  S
O2363      H2758   0.990   1_554  S
O2364     Zr2725   2.419       .  S
O2364      C2365   1.283       .  A
C2365      C2511   1.466       .  S
O2366      H2385   0.990       .  S
O2366      H2389   0.990       .  S
O2367     Zr2709   2.437       .  S
O2367      H2381   0.990       .  S
O2367      H2754   0.990       .  S
O2368      C2372   1.285       .  A
O2369     Zr2709   2.428       .  S
O2369      C2372   1.284       .  A
O2370      H2380   0.990       .  S
O2371      H2384   0.990       .  S
C2372      C2496   1.475       .  S
H2388      O2733   0.990   1_554  S
H2390      O2720   0.990   1_554  S
H2391      O2712   0.990   1_554  S
H2392      O2729   0.990       .  S
Zr2395     O2397   2.436       .  S
Zr2395     O2403   2.382       .  S
Zr2395     O2404   2.387       .  S
O2396      H2452   0.990   1_565  S
O2396      H2460   0.990       .  S
O2397      C2417   1.284       .  A
O2398      C2419   1.286       .  A
O2399     Zr2775   2.416       .  S
O2399      C2418   1.283       .  A
O2400     Zr2774   2.432       .  S
O2400      C2419   1.286       .  A
O2401      C2418   1.288       .  A
O2402     Zr2776   2.414       .  S
O2402      C2417   1.281       .  A
O2403     Zr2776   2.382       .  S
O2404     Zr2776   2.370       .  S
O2404      H2439   0.966       .  S
O2405     Zr2774   2.394       .  S
O2405      H2442   0.965       .  S
O2406     Zr2775   2.396       .  S
Zr2407     O2426   2.447       .  S
Zr2407     O2415   2.375       .  S
Zr2407     O2416   2.384       .  S
Zr2408     O2427   2.437       .  S
Zr2408     O2420   2.433       .  S
Zr2408     O2766   2.387   1_554  S
Zr2408     O2421   2.383       .  S
Zr2408     O2771   2.389   1_554  S
Zr2408     O2414   2.388   1_655  S
Zr2409     O2777   2.434       .  S
Zr2409     O2433   2.438       .  S
Zr2409     O2765   2.412       .  S
Zr2409     O2435   2.431   1_556  S
Zr2409     O2772   2.397       .  S
Zr2409     O2413   2.383   1_556  S
Zr2410     O2436   2.436       .  S
Zr2410     O2437   2.435       .  S
Zr2410     O2412   2.437       .  S
Zr2410     O2768   2.394   1_554  S
Zr2410     O2769   2.382   1_554  S
Zr2410     O2770   2.380   1_554  S
O2411     Zr2775   2.435       .  S
O2411      H2448   0.990       .  S
O2412      H2443   0.990       .  S
O2412      H2823   0.990   1_554  S
O2414      H2440   0.966   1_455  S
O2415     Zr2791   2.377   1_554  S
O2416     Zr2791   2.385   1_554  S
O2416      H2441   0.966       .  S
C2417      C2476   1.476       .  S
C2418      C2480   1.484       .  S
C2419      C2484   1.488       .  S
O2420      H2822   0.990       .  S
O2421      C2423   1.277       .  A
O2422      C2423   1.286       .  A
C2423      C2471   1.469       .  S
O2424     Zr2425   2.441       .  S
O2424      H2453   0.990       .  S
Zr2425     O2428   2.437       .  S
Zr2425     O2429   2.442       .  S
Zr2425     O2796   2.420       .  S
Zr2425     O2781   2.379       .  S
Zr2425     O2782   2.373       .  S
O2426      C2431   1.287       .  A
O2427      H2444   0.990       .  S
O2427      H2825   0.990   1_554  S
O2428      H2811   0.990       .  S
O2429      H2449   0.990       .  S
O2429      H2824   0.989       .  S
O2430     Zr2791   2.413   1_554  S
O2430      C2431   1.281       .  A
C2431      C2488   1.479       .  S
O2432      H2451   0.990       .  S
O2432      H2455   0.990       .  S
O2433      H2447   0.990       .  S
O2433      H2820   0.990       .  S
O2434      C2438   1.281       .  A
O2435      C2438   1.286       .  A
O2436      H2446   0.990       .  S
O2437      H2450   0.990       .  S
C2438      C2467   1.470       .  S
H2445      O2794   0.990   1_554  S
H2454      O2799   0.990       .  S
H2456      O2786   0.990       .  S
H2457      O2778   0.990       .  S
H2458      O2795   0.989   1_554  S
H2459      O2793   0.990       .  S
C2461      C2487   1.532       .  S
C2461      C2507   1.528       .  S
C2461      C2532   1.520       .  S
C2461      C2556   1.532       .  S
C2462      C2483   1.534       .  S
C2462      C2500   1.522       .  S
C2462      C2523   1.517       .  S
C2462      C2547   1.533       .  S
C2463      C2479   1.532       .  S
C2463      C2495   1.534       .  S
C2463      C2515   1.526       .  S
C2463      C2539   1.537       .  S
C2464      C2475   1.529       .  S
C2464      C2512   1.523       .  S
C2464      C2528   1.528       .  S
C2464      C2552   1.518       .  S
C2465      C2472   1.519       .  S
C2465      C2503   1.531       .  S
C2465      C2536   1.533       .  S
C2465      C2543   1.525       .  S
C2466      C2468   1.527       .  S
C2466      C2492   1.523       .  S
C2466      C2519   1.532       .  S
C2466      C2559   1.530       .  S
C2467      C2468   1.344       .  D
C2467      H2469   1.085       .  S
C2468      H2470   1.090       .  S
C2471      C2472   1.353       .  D
C2471      H2473   1.087       .  S
C2472      H2474   1.089       .  S
C2475      C2476   1.351       .  D
C2475      H2477   1.089       .  S
C2476      H2478   1.087       .  S
C2479      C2480   1.353       .  D
C2479      H2481   1.089       .  S
C2480      H2482   1.086       .  S
C2483      C2484   1.351       .  D
C2483      H2485   1.089       .  S
C2484      H2486   1.086       .  S
C2487      C2488   1.354       .  D
C2487      H2489   1.088       .  S
C2488      H2490   1.087       .  S
C2491      C2492   1.343       .  D
C2491      H2493   1.085       .  S
C2492      H2494   1.089       .  S
C2495      C2496   1.348       .  D
C2495      H2497   1.089       .  S
C2496      H2498   1.081       .  S
C2499      C2500   1.345       .  D
C2499      H2501   1.085       .  S
C2500      H2502   1.090       .  S
C2503      C2504   1.346       .  D
C2503      H2505   1.090       .  S
C2504      H2506   1.085       .  S
C2507      C2508   1.345       .  D
C2507      H2509   1.089       .  S
C2508      H2510   1.082       .  S
C2511      C2512   1.344       .  D
C2511      H2513   1.081       .  S
C2512      H2514   1.089       .  S
C2515      C2516   1.341       .  D
C2515      H2517   1.087       .  S
C2516      H2518   1.085       .  S
C2519      C2520   1.349       .  D
C2519      H2521   1.089       .  S
C2520      H2522   1.081       .  S
C2523      C2524   1.346       .  D
C2523      H2525   1.087       .  S
C2524      H2526   1.087       .  S
C2527      C2528   1.352       .  D
C2527      H2529   1.082       .  S
C2528      H2530   1.088       .  S
C2531      C2532   1.349       .  D
C2531      H2533   1.084       .  S
C2532      H2534   1.087       .  S
C2535      C2536   1.342       .  D
C2535      H2537   1.082       .  S
C2536      H2538   1.089       .  S
C2539      C2540   1.358       .  D
C2539      H2541   1.087       .  S
C2540      H2542   1.082       .  S
C2543      C2544   1.344       .  D
C2543      H2545   1.087       .  S
C2544      H2546   1.086       .  S
C2547      C2548   1.342       .  D
C2547      H2549   1.088       .  S
C2548      H2550   1.086       .  S
C2551      C2552   1.345       .  D
C2551      H2553   1.085       .  S
C2552      H2554   1.087       .  S
C2555      C2556   1.350       .  D
C2555      H2557   1.082       .  S
C2556      H2558   1.088       .  S
C2559      C2560   1.347       .  D
C2559      H2561   1.089       .  S
C2560      H2562   1.083       .  S
Zr2563     O2564   2.437       .  S
Zr2563     O2565   2.413       .  S
Zr2563     O2566   2.438       .  S
Zr2563     O2569   2.442       .  S
Zr2563     O2571   2.380       .  S
Zr2563     O2572   2.383       .  S
Zr2563     O2573   2.402       .  S
Zr2563     O2574   2.402       .  S
O2564      H2620   0.990       .  S
O2564      H2628   0.990       .  S
O2565      C2585   1.278       .  A
O2566      C2587   1.284       .  A
O2567      C2586   1.286       .  A
O2568     Zr2576   2.401       .  S
O2568      C2587   1.279       .  A
O2569      C2586   1.286       .  A
O2570      C2585   1.288       .  A
O2571     Zr2576   2.383       .  S
O2572      H2607   0.966       .  S
O2573     Zr2576   2.392       .  S
O2573     Zr2593   2.394       .  S
O2573      H2610   0.966       .  S
O2574     Zr2593   2.402       .  S
Zr2575     O2600   2.441       .  S
Zr2575     O2594   2.458       .  S
Zr2575     O2602   2.454       .  S
Zr2575     O2590   2.466       .  S
Zr2575     O2581   2.418       .  S
Zr2575     O2582   2.418       .  S
Zr2575     O2583   2.380       .  S
Zr2575     O2584   2.379       .  S
Zr2576     O2595   2.438       .  S
Zr2577     O2601   2.437   1_545  S
Zr2577     O2603   2.418   1_545  S
Zr2577     O2581   2.386   1_545  S
Zr2577     O2584   2.369   1_545  S
Zr2578     O2604   2.436       .  S
Zr2578     O2605   2.435       .  S
Zr2578     O2580   2.436       .  S
Zr2578     O2581   2.414       .  S
Zr2578     O2582   2.407       .  S
O2579      H2616   0.990       .  S
O2580      H2611   0.990       .  S
O2582      H2608   0.966       .  S
O2584      H2609   0.965       .  S
C2585      C2914   1.476       .  S
C2586      C2910   1.486       .  S
C2587      C2917   1.471       .  S
O2589      C2591   1.283       .  A
O2590      C2591   1.291       .  A
C2591      C2906   1.493       .  S
O2592     Zr2593   2.440       .  S
O2592      H2621   0.990       .  S
Zr2593     O2596   2.437       .  S
Zr2593     O2597   2.439       .  S
O2594      C2599   1.290       .  A
O2595      H2612   0.990       .  S
O2595      H2627   0.990       .  S
O2596      H2613   0.990       .  S
O2597      H2617   0.990       .  S
O2598      C2599   1.277       .  A
C2599      C2926   1.466       .  S
O2600      H2619   0.990       .  S
O2600      H2623   0.990       .  S
O2601      H2615   0.990       .  S
O2602      C2606   1.287       .  A
O2603      C2606   1.282       .  A
O2604      H2614   0.990       .  S
O2605      H2618   0.990       .  S
C2606      C2921   1.471       .  S
Zr2629     O2630   2.437       .  S
Zr2629     O2631   2.412       .  S
Zr2629     O2632   2.427       .  S
Zr2629     O2635   2.429       .  S
Zr2629     O2637   2.380       .  S
Zr2629     O2638   2.379       .  S
Zr2629     O2639   2.402       .  S
Zr2629     O2640   2.402       .  S
O2630      H2686   0.990       .  S
O2630      H2694   0.990       .  S
O2631      C2651   1.280       .  A
O2632      C2653   1.283       .  A
O2633      C2652   1.282       .  A
O2634     Zr2642   2.423       .  S
O2634      C2653   1.284       .  A
O2635      C2652   1.283       .  A
O2636      C2651   1.288       .  A
O2637     Zr2642   2.382       .  S
O2638      H2673   0.966       .  S
O2639     Zr2642   2.392       .  S
O2639     Zr2659   2.397       .  S
O2639      H2676   0.966       .  S
O2640     Zr2659   2.405       .  S
Zr2641     O2666   2.438       .  S
Zr2641     O2660   2.416       .  S
Zr2641     O2668   2.433       .  S
Zr2641     O2656   2.424       .  S
Zr2641     O2647   2.402       .  S
Zr2641     O2648   2.408       .  S
Zr2641     O2649   2.380       .  S
Zr2641     O2650   2.377       .  S
Zr2642     O2661   2.436       .  S
Zr2643     O2667   2.436       .  S
Zr2643     O2669   2.411       .  S
Zr2643     O2647   2.388       .  S
Zr2643     O2650   2.377       .  S
Zr2644     O2670   2.435       .  S
Zr2644     O2671   2.435       .  S
Zr2644     O2646   2.435       .  S
Zr2644     O2647   2.406       .  S
Zr2644     O2648   2.397       .  S
O2645      H2682   0.990       .  S
O2646      H2677   0.990       .  S
O2648      H2674   0.966       .  S
O2650      H2675   0.965       .  S
C2651      C2901   1.478       .  S
C2652      C2890   1.471       .  S
C2653      C2897   1.475       .  S
O2655      C2657   1.282       .  A
O2656      C2657   1.283       .  A
C2657      C2886   1.469       .  S
O2658     Zr2659   2.439       .  S
O2658      H2687   0.990       .  S
Zr2659     O2662   2.436       .  S
Zr2659     O2663   2.440       .  S
O2660      C2665   1.280       .  A
O2661      H2678   0.990       .  S
O2661      H2693   0.990       .  S
O2662      H2679   0.990   1_655  S
O2663      H2683   0.990       .  S
O2664      C2665   1.288       .  A
C2665      C2882   1.480       .  S
O2666      H2685   0.990       .  S
O2666      H2689   0.990       .  S
O2667      H2681   0.990       .  S
O2668      C2672   1.283       .  A
O2669      C2672   1.282       .  A
O2670      H2680   0.990       .  S
O2671      H2684   0.990       .  S
C2672      C2893   1.465       .  S
Zr2695     O2696   2.439       .  S
Zr2695     O2697   2.425       .  S
Zr2695     O2698   2.422       .  S
Zr2695     O2701   2.412       .  S
Zr2695     O2703   2.384       .  S
Zr2695     O2704   2.385       .  S
Zr2695     O2705   2.401       .  S
Zr2695     O2706   2.401       .  S
O2696      H2752   0.990       .  S
O2696      H2760   0.990       .  S
O2697      C2717   1.281       .  A
O2698      C2719   1.280       .  A
O2699     Zr2709   2.419       .  S
O2699      C2718   1.285       .  A
O2700     Zr2708   2.438       .  S
O2700      C2719   1.286       .  A
O2701      C2718   1.279       .  A
O2702      C2717   1.285       .  A
O2703     Zr2708   2.384       .  S
O2704     Zr2709   2.382       .  S
O2704      H2739   0.966       .  S
O2705     Zr2708   2.394       .  S
O2705     Zr2725   2.390       .  S
O2705      H2742   0.966       .  S
O2706     Zr2709   2.389       .  S
O2706     Zr2725   2.395       .  S
Zr2707     O2732   2.442       .  S
Zr2707     O2726   2.437       .  S
Zr2707     O2734   2.485       .  S
Zr2707     O2722   2.505       .  S
Zr2707     O2713   2.412       .  S
Zr2707     O2714   2.411       .  S
Zr2707     O2715   2.381       .  S
Zr2707     O2716   2.394       .  S
Zr2708     O2727   2.437       .  S
Zr2709     O2711   2.435       .  S
Zr2710     O2736   2.436       .  S
Zr2710     O2737   2.435       .  S
Zr2710     O2712   2.435       .  S
Zr2710     O2713   2.396       .  S
Zr2710     O2714   2.402       .  S
O2711      H2748   0.990       .  S
O2712      H2743   0.990       .  S
O2714      H2740   0.966       .  S
O2716      H2741   0.966       .  S
C2717      C2874   1.482       .  S
C2718      C2857   1.472       .  S
C2719      C2870   1.468       .  S
O2721      C2723   1.279       .  A
O2722      C2723   1.300       .  A
C2723      C2865   1.492       .  S
O2724     Zr2725   2.439       .  S
O2724      H2753   0.990       .  S
Zr2725     O2728   2.437       .  S
Zr2725     O2729   2.439       .  S
O2726      C2731   1.286       .  A
O2727      H2744   0.990       .  S
O2727      H2759   0.990       .  S
O2728      H2745   0.990       .  S
O2729      H2749   0.990       .  S
O2730      C2731   1.286       .  A
C2731      C2877   1.484       .  S
O2732      H2751   0.991       .  S
O2732      H2755   0.990       .  S
O2733      H2747   0.990       .  S
O2734      C2738   1.294       .  A
O2735      C2738   1.285       .  A
O2736      H2746   0.990       .  S
O2737      H2750   0.990       .  S
C2738      C2862   1.494       .  S
Zr2761     O2763   2.481       .  S
Zr2761     O2769   2.382       .  S
Zr2761     O2770   2.386       .  S
O2762      H2818   0.990   1_565  S
O2762      H2826   0.990       .  S
O2763      C2783   1.294       .  A
O2764      C2785   1.297       .  A
O2765      C2784   1.282       .  A
O2766      C2785   1.273       .  A
O2767      C2784   1.292       .  A
O2768      C2783   1.275       .  A
O2770      H2805   0.965       .  S
O2771      H2808   0.966       .  S
Zr2773     O2792   2.436       .  S
Zr2773     O2781   2.376       .  S
Zr2773     O2782   2.389       .  S
Zr2774     O2793   2.436       .  S
Zr2774     O2786   2.435       .  S
Zr2774     O2787   2.422       .  S
Zr2774     O2780   2.396       .  S
Zr2775     O2799   2.438       .  S
Zr2775     O2801   2.440       .  S
Zr2775     O2779   2.383   1_565  S
Zr2776     O2802   2.436       .  S
Zr2776     O2803   2.435       .  S
Zr2776     O2778   2.436       .  S
O2777      H2814   0.990       .  S
O2778      H2809   0.990       .  S
O2780      H2806   0.966       .  S
O2782      H2807   0.966       .  S
C2783      C2842   1.474       .  S
C2784      C2846   1.489       .  S
C2785      C2850   1.480       .  S
O2787      C2789   1.285       .  A
O2788      C2789   1.281       .  A
C2789      C2837   1.468       .  S
O2790     Zr2791   2.440       .  S
O2790      H2819   0.990       .  S
Zr2791     O2794   2.437       .  S
Zr2791     O2795   2.439       .  S
O2792      C2797   1.283       .  A
O2793      H2810   0.990       .  S
O2795      H2815   0.990   1_556  S
O2796      C2797   1.284       .  A
C2797      C2854   1.481       .  S
O2798      H2817   0.990       .  S
O2798      H2821   0.990       .  S
O2799      H2813   0.990       .  S
O2800      C2804   1.280       .  A
O2801      C2804   1.289       .  A
O2802      H2812   0.990       .  S
O2803      H2816   0.990       .  S
C2804      C2833   1.477       .  S
C2827      C2853   1.528       .  S
C2827      C2873   1.531       .  S
C2827      C2898   1.522       .  S
C2827      C2922   1.526       .  S
C2828      C2849   1.543       .  S
C2828      C2866   1.557       .  S
C2828      C2889   1.517       .  S
C2828      C2913   1.532       .  S
C2829      C2845   1.540       .  S
C2829      C2861   1.544       .  S
C2829      C2881   1.528       .  S
C2829      C2905   1.539       .  S
C2830      C2841   1.536       .  S
C2830      C2878   1.541       .  S
C2830      C2894   1.518       .  S
C2830      C2918   1.520       .  S
C2831      C2838   1.521       .  S
C2831      C2869   1.526       .  S
C2831      C2902   1.527       .  S
C2831      C2909   1.537       .  S
C2832      C2834   1.533       .  S
C2832      C2858   1.518       .  S
C2832      C2885   1.522       .  S
C2832      C2925   1.523       .  S
C2833      C2834   1.344       .  D
C2833      H2835   1.086       .  S
C2834      H2836   1.089       .  S
C2837      C2838   1.345       .  D
C2837      H2839   1.087       .  S
C2838      H2840   1.089       .  S
C2841      C2842   1.340       .  D
C2841      H2843   1.089       .  S
C2842      H2844   1.087       .  S
C2845      C2846   1.359       .  D
C2845      H2847   1.088       .  S
C2846      H2848   1.086       .  S
C2849      C2850   1.350       .  D
C2849      H2851   1.089       .  S
C2850      H2852   1.086       .  S
C2853      C2854   1.349       .  D
C2853      H2855   1.087       .  S
C2854      H2856   1.086       .  S
C2857      C2858   1.341       .  D
C2857      H2859   1.083       .  S
C2858      H2860   1.088       .  S
C2861      C2862   1.354       .  D
C2861      H2863   1.089       .  S
C2862      H2864   1.083       .  S
C2865      C2866   1.355       .  D
C2865      H2867   1.082       .  S
C2866      H2868   1.088       .  S
C2869      C2870   1.341       .  D
C2869      H2871   1.089       .  S
C2870      H2872   1.082       .  S
C2873      C2874   1.346       .  D
C2873      H2875   1.086       .  S
C2874      H2876   1.084       .  S
C2877      C2878   1.351       .  D
C2877      H2879   1.081       .  S
C2878      H2880   1.087       .  S
C2881      C2882   1.343       .  D
C2881      H2883   1.088       .  S
C2882      H2884   1.084       .  S
C2885      C2886   1.347       .  D
C2885      H2887   1.086       .  S
C2886      H2888   1.084       .  S
C2889      C2890   1.347       .  D
C2889      H2891   1.088       .  S
C2890      H2892   1.086       .  S
C2893      C2894   1.341       .  D
C2893      H2895   1.082       .  S
C2894      H2896   1.091       .  S
C2897      C2898   1.345       .  D
C2897      H2899   1.084       .  S
C2898      H2900   1.088       .  S
C2901      C2902   1.343       .  D
C2901      H2903   1.085       .  S
C2902      H2904   1.088       .  S
C2905      C2906   1.357       .  D
C2905      H2907   1.087       .  S
C2906      H2908   1.082       .  S
C2909      C2910   1.349       .  D
C2909      H2911   1.088       .  S
C2910      H2912   1.083       .  S
C2913      C2914   1.340       .  D
C2913      H2915   1.090       .  S
C2914      H2916   1.082       .  S
C2917      C2918   1.351       .  D
C2917      H2919   1.084       .  S
C2918      H2920   1.087       .  S
C2921      C2922   1.345       .  D
C2921      H2923   1.084       .  S
C2922      H2924   1.089       .  S
C2925      C2926   1.337       .  D
C2925      H2927   1.088       .  S
C2926      H2928   1.087       .  S
