geometry optimzed in LAMMPS
_audit_creation_date              2020-12-01 
_audit_creation_method            'lammps2cif' 
_symmetry_space_group_name_H-M    'P1' 
_symmetry_Int_Tables_number       1 
_symmetry_cell_setting            triclinic 
loop_ 
_symmetry_equiv_pos_as_xyz 
  x,y,z 
_cell_length_a                    70.02354606 
_cell_length_b                    69.9398019444861 
_cell_length_c                    28.574558972519043 
_cell_angle_alpha                 90.2671357220975 
_cell_angle_beta                  89.79090743714951 
_cell_angle_gamma                 119.77580949225417 
loop_ 
_atom_site_label 
_atom_site_type_symbol 
_atom_site_fract_x 
_atom_site_fract_y 
_atom_site_fract_z 
_atom_site_charge 
N1          N  0.46199911  0.92939805  0.48247650    -0.03200
C2          C  0.47455273  0.95183505  0.48074201    -0.00600
C3          C  0.48078358  0.96029195  0.02535169    -0.23500
C4          C  0.47196328  0.94300480  0.05561881    -0.23700
C5          C  0.46081764  0.92422153  0.02881800    -0.00700
H6          H  0.49088276  0.97747104  0.03477111     0.13100
H7          H  0.47359302  0.94394386  0.09333739     0.13100
N8          N  0.48120772  0.53794199  0.02461995    -0.03200
C9          C  0.49358167  0.52773777  0.02484660    -0.00600
C10         C  0.49998841  0.52608359  0.47991301    -0.23500
C11         C  0.49193180  0.53581272  0.45096541    -0.23700
C12         C  0.48049332  0.54291662  0.47867059    -0.00700
H13         H  0.50984631  0.51879573  0.46944524     0.13100
H14         H  0.49373346  0.53712011  0.41328290     0.13100
N15         N  0.41705042  0.85393604  0.25205964    -0.36300
N16         N  0.40615050  0.81735487  0.18685862    -0.56900
N17         N  0.38901471  0.78749304  0.26454361    -0.36300
N18         N  0.40098080  0.82323510  0.33001508    -0.56900
C19         C  0.42621350  0.86502777  0.21184601     0.27300
C20         C  0.42630288  0.86822549  0.28846745     0.27300
C21         C  0.39056198  0.77438988  0.23162837     0.27300
C22         C  0.38602802  0.77716161  0.30585925     0.27300
C23         C  0.41024772  0.83328719  0.15543610     0.35900
C24         C  0.39685484  0.79809151  0.16289903     0.35900
C25         C  0.40679021  0.84199802  0.35398493     0.35900
C26         C  0.38854937  0.80635722  0.35911323     0.35900
C27         C  0.44092847  0.88686385  0.22272998    -0.21600
C28         C  0.44113582  0.88881908  0.27088444    -0.21600
C29         C  0.38879241  0.75569171  0.25226077    -0.21600
C30         C  0.38589399  0.75740601  0.29916854    -0.21600
C31         C  0.40393009  0.82410627  0.11106824    -0.22700
C32         C  0.39532696  0.80175952  0.11589167    -0.22700
C33         C  0.39813658  0.83700448  0.39893351    -0.22700
C34         C  0.38631209  0.81436009  0.40196679    -0.22700
C35         C  0.42129572  0.85612332  0.16554735    -0.18000
C36         C  0.42121788  0.86345114  0.33695990    -0.18000
C37         C  0.38139059  0.78406454  0.34873924    -0.18000
C38         C  0.39055568  0.77741686  0.18303475    -0.18000
H39         H  0.45068065  0.90003904  0.19852864     0.14900
H40         H  0.45096772  0.90379410  0.29066077     0.14900
H41         H  0.38884438  0.74189847  0.23504053     0.14900
H42         H  0.38342921  0.74518919  0.32518748     0.14900
H43         H  0.40553369  0.83263217  0.07851608     0.13200
H44         H  0.38895254  0.78965726  0.08800512     0.13200
H45         H  0.40030367  0.84847123  0.42674035     0.13200
H46         H  0.37781074  0.80490576  0.43266194     0.13200
H47         H  0.40396463  0.83794868  0.25388263     0.26400
H48         H  0.38655450  0.80076307  0.25852314     0.26400
O49         O  0.32702389  0.62459978  0.05616171    -0.85100
O50         O  0.28665060  0.62300082  0.03473678    -0.82100
C51         C  0.28216215  0.63534171  0.05935530     0.98400
O52         O  0.29563927  0.65570883  0.06113012    -0.82100
O53         O  0.33406184  0.69546579  0.04790464    -0.84800
C54         C  0.34991978  0.69750078  0.07268814     1.02900
O55         O  0.35792030  0.68497818  0.06634564    -0.77600
O56         O  0.36031541  0.64842110  0.03368529    -0.77700
C57         C  0.34745897  0.63125614  0.05623484     1.02900
O58         O  0.33613981  0.62651125  0.45948950    -0.85100
O59         O  0.29805444  0.62744616  0.43952258    -0.82100
C60         C  0.28540382  0.63541150  0.43657225     0.98400
O61         O  0.28804285  0.65108351  0.46301780    -0.82200
O62         O  0.32763812  0.68962440  0.44927125    -0.84800
C63         C  0.34779616  0.70377828  0.45128543     1.02900
O64         O  0.36058835  0.69958715  0.47422270    -0.77600
O65         O  0.35895764  0.66096601  0.44098692    -0.77700
C66         C  0.35175771  0.64059986  0.43484203     1.02800
Cr67       Cr  0.31323459  0.62803234  0.99814628     1.93700
Cr68       Cr  0.31263587  0.67179546  0.00518969     1.93200
Cr69       Cr  0.35685856  0.67219239  0.00359802     1.39100
O70         O  0.32749810  0.65731229  0.00251143    -1.22800
N71         N  0.42988169  0.56138952  0.25530981    -0.36300
N72         N  0.41223832  0.57459926  0.17683686    -0.56900
N73         N  0.39637927  0.59498959  0.24264339    -0.36300
N74         N  0.41452094  0.58314837  0.32075777    -0.56900
C75         C  0.44012126  0.55753935  0.21888472     0.27300
C76         C  0.43946525  0.56016301  0.29564411     0.27300
C77         C  0.39310261  0.60244002  0.20167864     0.27300
C78         C  0.39591172  0.60830267  0.27649500     0.27300
C79         C  0.42004653  0.56327997  0.15257213     0.35900
C80         C  0.39952028  0.57850552  0.14714737     0.35900
C81         C  0.42082961  0.57312974  0.35241210     0.35900
C82         C  0.40395595  0.59182796  0.34485749     0.35900
C83         C  0.45603655  0.55325120  0.23652486    -0.21600
C84         C  0.45552582  0.55474260  0.28465612    -0.21600
C85         C  0.39072187  0.62075166  0.20963406    -0.21600
C86         C  0.39254580  0.62446711  0.25686454    -0.21600
C87         C  0.41241914  0.56021248  0.10682653    -0.22700
C88         C  0.39919153  0.56961044  0.10358914    -0.22700
C89         C  0.41459000  0.57589687  0.39703570    -0.22700
C90         C  0.40369880  0.58755767  0.39213500    -0.22700
C91         C  0.43509126  0.55699505  0.17025735    -0.21700
C92         C  0.43390382  0.56337808  0.34216476    -0.18000
C93         C  0.39591627  0.60484022  0.32491527    -0.18000
C94         C  0.39044451  0.59218382  0.15771465    -0.18000
H95         H  0.46683045  0.54926591  0.21679554     0.14900
H96         H  0.46593069  0.55218738  0.30874611     0.14900
H97         H  0.38759086  0.63027125  0.18418681     0.14900
H98         H  0.39096964  0.63726887  0.27486583     0.14900
H99         H  0.41615760  0.55222102  0.07859049     0.13200
H100        H  0.39107292  0.57063421  0.07231806     0.13200
H101        H  0.41787485  0.57046990  0.42990363     0.13200
H102        H  0.39693631  0.59282306  0.42022502     0.13200
H103        H  0.41600757  0.56305446  0.25316909     0.26400
H104        H  0.39559350  0.57990722  0.24767019     0.26400
N105        N  0.12991537  0.57033853  0.25400286    -0.36300
N106        N  0.16576751  0.58016428  0.32100848    -0.56900
N107        N  0.19530964  0.59031297  0.24294361    -0.36300
N108        N  0.15993686  0.57877362  0.17563587    -0.56900
C109        C  0.11848795  0.56441051  0.29483311     0.27300
C110        C  0.11520562  0.56251530  0.21818149     0.27300
C111        C  0.20840596  0.59074170  0.27810062     0.27300
C112        C  0.20544510  0.59069458  0.20243907     0.27300
C113        C  0.15014451  0.57826055  0.35152917     0.35900
C114        C  0.18493071  0.58894369  0.34511054     0.35900
C115        C  0.14192765  0.57509156  0.15111695     0.35900
C116        C  0.17728812  0.58826019  0.14594328     0.35900
C117        C  0.09614677  0.55321742  0.28477641    -0.21600
C118        C  0.09409297  0.55196472  0.23666838    -0.21600
C119        C  0.22692262  0.59110799  0.25970116    -0.21600
C120        C  0.22504642  0.59103614  0.21197329    -0.21600
C121        C  0.15935923  0.58529869  0.39560147    -0.22700
C122        C  0.18140766  0.59216654  0.39144036    -0.22700
C123        C  0.14781770  0.58170843  0.10507400    -0.22700
C124        C  0.17026715  0.59031527  0.10198310    -0.22700
C125        C  0.12751120  0.56939885  0.34096969    -0.18000
C126        C  0.12017291  0.56527705  0.16930499    -0.18000
C127        C  0.19911013  0.59384522  0.15754219    -0.18000
C128        C  0.20542567  0.59348948  0.32599510    -0.18000
H129        H  0.08265364  0.54662529  0.30953883     0.14900
H130        H  0.07874526  0.54427238  0.21750614     0.14900
H131        H  0.24075771  0.59213385  0.27864615     0.14900
H132        H  0.23720380  0.59201672  0.18713599     0.14900
H133        H  0.15108384  0.58555809  0.42746422     0.13200
H134        H  0.19342493  0.59864824  0.41933591     0.13200
H135        H  0.13710703  0.58065620  0.07675921     0.13200
H136        H  0.18020133  0.59688453  0.07078591     0.13200
H137        H  0.14673860  0.58063508  0.25104570     0.26400
H138        H  0.18240007  0.59351328  0.24611688     0.26400
N139        N  0.05407251  0.53726927  0.02426964    -0.03200
C140        C  0.03199201  0.52985884  0.02682514    -0.00600
C141        C  0.02410290  0.53168520  0.48365028    -0.23500
C142        C  0.04162985  0.54072343  0.45379009    -0.23700
C143        C  0.05968286  0.54394593  0.47917595    -0.00700
H144        H  0.00712833  0.52575707  0.47401869     0.13100
H145        H  0.04115477  0.54381244  0.41684352     0.13100
N146        N  0.93565184  0.45685268  0.02838853    -0.03200
C147        C  0.95739383  0.46262009  0.03002761    -0.00600
C148        C  0.96443825  0.46003450  0.48661873    -0.23500
C149        C  0.94690879  0.45239419  0.45709199    -0.23700
C150        C  0.92947811  0.45039601  0.48324205    -0.00700
H151        H  0.98114039  0.46496997  0.47625337     0.13100
H152        H  0.94694723  0.44917193  0.42001132     0.13100
N153        N  0.55297330  0.48573725  0.03885852    -0.03200
C154        C  0.54767360  0.50208576  0.04037150    -0.00600
C155        C  0.55425993  0.51423227  0.50027290    -0.23500
C156        C  0.56388686  0.50543345  0.47256698    -0.23700
C157        C  0.56287881  0.48795519  0.49680580    -0.00700
H158        H  0.55082780  0.52712615  0.49019140     0.13100
H159        H  0.56947776  0.51017140  0.43692240     0.13100
N160        N  0.85954558  0.42207689  0.25850776    -0.36300
N161        N  0.82867314  0.40642680  0.18008088    -0.56900
N162        N  0.79287794  0.39162015  0.24713719    -0.36300
N163        N  0.82302160  0.40851400  0.32496113    -0.56900
C164        C  0.87388759  0.43077516  0.22211986     0.27300
C165        C  0.87086051  0.43073294  0.29884737     0.27300
C166        C  0.78227501  0.38940268  0.20639342     0.27300
C167        C  0.77926178  0.39081918  0.28167481     0.27300
C168        C  0.84739424  0.41207886  0.15601966     0.35900
C169        C  0.81165598  0.39423833  0.15086207     0.35900
C170        C  0.83941403  0.41417975  0.35615885     0.35900
C171        C  0.80396486  0.39816181  0.34940001     0.35900
C172        C  0.89467559  0.44496215  0.23977342    -0.21600
C173        C  0.89281199  0.44480291  0.28792055    -0.21600
C174        C  0.76188614  0.38747895  0.21515620    -0.21600
C175        C  0.75992704  0.38821696  0.26263143    -0.21600
C176        C  0.84219026  0.40365182  0.11084880    -0.22700
C177        C  0.81953503  0.39221429  0.10772994    -0.22700
C178        C  0.83067066  0.40800248  0.40089157    -0.22700
C179        C  0.80820027  0.39773836  0.39650741    -0.22700
C180        C  0.86907858  0.42544175  0.17363730    -0.18000
C181        C  0.86218195  0.42559218  0.34534470    -0.18000
C182        C  0.78284458  0.39001191  0.32986762    -0.18000
C183        C  0.78926477  0.38637408  0.16203030    -0.18000
H184        H  0.90975182  0.45422680  0.22005751     0.14900
H185        H  0.90618511  0.45401528  0.31209946     0.14900
H186        H  0.74932481  0.38501642  0.19004894     0.14900
H187        H  0.74557158  0.38644444  0.28080912     0.14900
H188        H  0.85352952  0.40552377  0.08304874     0.13200
H189        H  0.80998329  0.38376925  0.07705665     0.13200
H190        H  0.83951007  0.41066773  0.43344315     0.13200
H191        H  0.79636485  0.39099539  0.42476693     0.13200
H192        H  0.84340844  0.40939695  0.25637844     0.26400
H193        H  0.80678730  0.39010839  0.25131870     0.26400
N194        N  0.59536336  0.38928874  0.25461329    -0.36300
N195        N  0.58727313  0.41557712  0.18976048    -0.56900
N196        N  0.57567430  0.43454399  0.26939891    -0.36300
N197        N  0.58196163  0.40595195  0.33401239    -0.56900
C198        C  0.59799283  0.38133620  0.21351566     0.27300
C199        C  0.59228699  0.37427113  0.28755884     0.27300
C200        C  0.56831153  0.44184824  0.23348410     0.27300
C201        C  0.56890546  0.43934476  0.31020599     0.27300
C202        C  0.59859721  0.40942830  0.16061681     0.35900
C203        C  0.58388434  0.43040804  0.16651740     0.35900
C204        C  0.58953744  0.39418980  0.35695679     0.35900
C205        C  0.58089848  0.41975704  0.36578666     0.35900
C206        C  0.59620051  0.36087793  0.22017830    -0.21600
C207        C  0.59252007  0.35637659  0.26701751    -0.21600
C208        C  0.55689125  0.45164967  0.25195472    -0.21600
C209        C  0.55749037  0.45030877  0.30011910    -0.21600
C210        C  0.60220562  0.42016981  0.11822878    -0.22700
C211        C  0.59263183  0.43324963  0.12170823    -0.22700
C212        C  0.59260744  0.39996085  0.40385988    -0.22700
C213        C  0.58704671  0.41611582  0.40953826    -0.22700
C214        C  0.60431314  0.39314593  0.17125220    -0.18000
C215        C  0.59359042  0.37822963  0.33599498    -0.18000
C216        C  0.57356056  0.43491896  0.35627376    -0.18000
C217        C  0.57262524  0.44107077  0.18471812    -0.18000
H218        H  0.59809788  0.35060394  0.19426037     0.14900
H219        H  0.59135693  0.34211005  0.28435981     0.14900
H220        H  0.54923079  0.45935968  0.23277334     0.14900
H221        H  0.55026163  0.45666155  0.32484817     0.14900
H222        H  0.61043517  0.41841357  0.08775219     0.13200
H223        H  0.59239417  0.44386021  0.09453479     0.13200
H224        H  0.59830340  0.39327615  0.43104766     0.13200
H225        H  0.58754272  0.42426094  0.44217618     0.13200
H226        H  0.59958380  0.40555103  0.26084742     0.26400
H227        H  0.58650004  0.42856921  0.26664821     0.26400
O228        O  0.66255986  0.35671076  0.06171089    -0.85100
O229        O  0.70231614  0.35860733  0.03501556    -0.82100
C230        C  0.70767170  0.34687488  0.05898209     0.98400
O231        O  0.69478690  0.32628151  0.06103672    -0.82100
O232        O  0.65650030  0.28550379  0.04785389    -0.84800
C233        C  0.64059425  0.28264240  0.07371704     1.02900
O234        O  0.63348764  0.29604107  0.07202287    -0.77600
O235        O  0.62894971  0.33181214  0.04376385    -0.77700
C236        C  0.64206435  0.34951898  0.06452528     1.02900
O237        O  0.65073473  0.35358449  0.46636615    -0.85100
O238        O  0.68837215  0.35278989  0.44053523    -0.82100
C239        C  0.70223250  0.34634033  0.43729311     0.98400
O240        O  0.70058471  0.33099083  0.46315127    -0.82200
O241        O  0.66105888  0.29169669  0.44992984    -0.84800
C242        C  0.64079706  0.27770662  0.45218622     1.02900
O243        O  0.62833773  0.28123267  0.47848399    -0.77600
O244        O  0.62827500  0.31891957  0.44930241    -0.77700
C245        C  0.63449205  0.33902907  0.44372892     1.02800
Cr246      Cr  0.67488848  0.35288029  0.00160443     1.93700
Cr247      Cr  0.67695212  0.30980496  0.00574867     1.93200
Cr248      Cr  0.63229894  0.30831645  0.01066294     1.39100
O249        O  0.66145070  0.32369783  0.00630763    -1.22800
N250        N  0.56173770  0.12498803  0.25239937    -0.36300
N251        N  0.57870065  0.16096290  0.18418178    -0.56900
N252        N  0.59612724  0.19239806  0.26048596    -0.36300
N253        N  0.58088937  0.15705360  0.32882546    -0.56900
C254        C  0.55866764  0.11348950  0.21194212     0.27300
C255        C  0.55830074  0.11116363  0.28876140     0.27300
C256        C  0.60535086  0.20592115  0.22350297     0.27300
C257        C  0.60698460  0.20393153  0.29895125     0.27300
C258        C  0.56840949  0.14393589  0.15409873     0.35900
C259        C  0.58526465  0.17951722  0.15902238     0.35900
C260        C  0.57077636  0.13858142  0.35511224     0.35900
C261        C  0.58916694  0.17439581  0.35884154     0.35900
C262        C  0.55270173  0.09193801  0.22283483    -0.21600
C263        C  0.55221590  0.09040258  0.27094794    -0.21600
C264        C  0.62206056  0.22623582  0.23874988    -0.21600
C265        C  0.62309359  0.22498630  0.28616685    -0.21600
C266        C  0.56849220  0.15175511  0.10947084    -0.22700
C267        C  0.57911330  0.17432613  0.11266932    -0.22700
C268        C  0.57337736  0.14436023  0.40223931    -0.22700
C269        C  0.58473246  0.16699065  0.40449977    -0.22700
C270        C  0.56052755  0.12157128  0.16534738    -0.18000
C271        C  0.56021983  0.11657573  0.33754759    -0.18000
C272        C  0.60178977  0.19678772  0.34571294    -0.18000
C273        C  0.59859432  0.20103691  0.17645044    -0.18000
H274        H  0.54889545  0.07857583  0.19860902     0.14900
H275        H  0.54797593  0.07557948  0.29036659     0.14900
H276        H  0.63239292  0.24068541  0.21806726     0.14900
H277        H  0.63432847  0.23835255  0.30852721     0.14900
H278        H  0.56194571  0.14221317  0.07772611     0.13200
H279        H  0.58255903  0.18562698  0.08394503     0.13200
H280        H  0.56783367  0.13345312  0.43210771     0.13200
H281        H  0.58962994  0.17685137  0.43612915     0.13200
H282        H  0.56435385  0.14087508  0.25516524     0.26400
H283        H  0.58158816  0.17740544  0.26014165     0.26400
N284        N  0.53589677  0.05011011  0.48064117    -0.03200
C285        C  0.53019340  0.02844852  0.47706222    -0.00600
C286        C  0.53470120  0.02125441  0.01864200    -0.23500
C287        C  0.54294562  0.03866575  0.04901313    -0.23700
C288        C  0.54354893  0.05603940  0.02520943    -0.00700
H289        H  0.53081502  0.00463511  0.02708158     0.13100
H290        H  0.54705657  0.03842917  0.08540520     0.13100
C291        C  0.56468531  0.08747242  0.37858571    -0.20000
C292        C  0.55245869  0.09823351  0.37271587    -0.06600
C293        C  0.53385557  0.09215265  0.40177372     0.14300
C294        C  0.52860878  0.07624329  0.43708620    -0.20100
C295        C  0.54068012  0.06529796  0.44232830    -0.06600
C296        C  0.55878740  0.07084883  0.41225478     0.14300
C297        C  0.57232335  0.05964277  0.41647572    -0.23400
H298        H  0.57898172  0.09216868  0.35661425     0.15600
H299        H  0.51497741  0.07221972  0.46062635     0.15600
C300        C  0.51937937  0.10222526  0.39525837    -0.23400
H301        H  0.58645321  0.06662377  0.39178259     0.05800
H302        H  0.56201767  0.04186763  0.40826837     0.09000
H303        H  0.57889901  0.06161533  0.45251980     0.09000
H304        H  0.51282793  0.09907303  0.35901848     0.09000
H305        H  0.52876236  0.12023494  0.40151085     0.09000
H306        H  0.50520662  0.09510517  0.41984146     0.05800
C307        C  0.57350948  0.10597001  0.10235604    -0.20000
C308        C  0.55576364  0.10606777  0.12512299    -0.06600
C309        C  0.53419797  0.09216083  0.10849044     0.14300
C310        C  0.53079371  0.07762399  0.07105166    -0.20100
C311        C  0.54846395  0.07657660  0.05020918    -0.06600
C312        C  0.57008469  0.09124955  0.06546260     0.14300
C313        C  0.58949543  0.09084917  0.04367881    -0.23400
H314        H  0.59008112  0.11703777  0.11452495     0.15600
H315        H  0.51415786  0.06594550  0.06020216     0.15600
C316        C  0.51481779  0.09228878  0.13110838    -0.23400
H317        H  0.60527615  0.10348595  0.05938359     0.05800
H318        H  0.59001827  0.09423030  0.00564238     0.09000
H319        H  0.58810366  0.07448408  0.04882842     0.09000
H320        H  0.51680106  0.10901982  0.12868964     0.09000
H321        H  0.51372595  0.08761971  0.16850439     0.09000
H322        H  0.49910438  0.08048404  0.11384239     0.05800
C323        C  0.60872642  0.24605143  0.41435644    -0.20000
C324        C  0.63111996  0.25629866  0.42663046    -0.06600
C325        C  0.64280895  0.24485869  0.41828468     0.14300
C326        C  0.63203628  0.22402626  0.39648084    -0.20100
C327        C  0.61009705  0.21459660  0.38172391    -0.06600
C328        C  0.59821376  0.22555831  0.39154787     0.14300
C329        C  0.57460790  0.21593400  0.37632784    -0.23400
H330        H  0.59949638  0.25441687  0.42148947     0.15600
H331        H  0.64116622  0.21569763  0.38794635     0.15600
C332        C  0.66655052  0.25434886  0.43222028    -0.23400
H333        H  0.56762474  0.22649320  0.38704155     0.05800
H334        H  0.56449044  0.19946304  0.39243082     0.09000
H335        H  0.57346039  0.21422868  0.33763931     0.09000
H336        H  0.66837079  0.25782410  0.47039594     0.09000
H337        H  0.67695473  0.26975111  0.41250130     0.09000
H338        H  0.67273551  0.24280342  0.42445275     0.05800
C339        C  0.59715233  0.23241649  0.14049747    -0.20000
C340        C  0.60776033  0.21998648  0.14391673    -0.06600
C341        C  0.62894200  0.22813292  0.12484887     0.14300
C342        C  0.63941414  0.24896804  0.10415452    -0.20100
C343        C  0.62914101  0.26189425  0.10118733    -0.06600
C344        C  0.60739836  0.25317296  0.11890291     0.14300
C345        C  0.59463836  0.26524112  0.11500792    -0.23400
H346        H  0.58098017  0.22603902  0.15605547     0.15600
H347        H  0.65582908  0.25513118  0.09011610     0.15600
C348        C  0.64077036  0.21511182  0.12787926    -0.23400
H349        H  0.57793456  0.25571258  0.13054082     0.05800
H350        H  0.59256248  0.26804792  0.07760884     0.09000
H351        H  0.60337948  0.28121300  0.13391652     0.09000
H352        H  0.63094685  0.19899462  0.10998629     0.09000
H353        H  0.64311681  0.21223992  0.16505414     0.09000
H354        H  0.65723407  0.22385516  0.11102218     0.05800
C355        C  0.60419260  0.37215541  0.10113141    -0.20000
C356        C  0.61625951  0.38662565  0.13714459    -0.06600
C357        C  0.63769937  0.39039882  0.14680895     0.14300
C358        C  0.64576349  0.37822705  0.12277673    -0.20100
C359        C  0.63305847  0.36247095  0.08869570    -0.06600
C360        C  0.61230538  0.36027923  0.07639466     0.14300
C361        C  0.59853630  0.34590751  0.03661422    -0.23400
H362        H  0.58780309  0.36934278  0.09388623     0.15600
H363        H  0.66194960  0.38083606  0.13141754     0.15600
C364        C  0.65225772  0.40691502  0.18301217    -0.23400
H365        H  0.58378138  0.34756021  0.03025498     0.05800
H366        H  0.59259808  0.32831053  0.04435738     0.09000
H367        H  0.60847172  0.35094305  0.00410956     0.09000
H368        H  0.65584502  0.39835256  0.21133840     0.09000
H369        H  0.64470951  0.41609830  0.19888465     0.09000
H370        H  0.66797257  0.41914792  0.16638915     0.05800
C371        C  0.59027350  0.34728825  0.38499322    -0.20000
C372        C  0.60362333  0.36777409  0.36402139    -0.06600
C373        C  0.62668447  0.37745498  0.36578720     0.14300
C374        C  0.63594819  0.36674393  0.38981194    -0.20100
C375        C  0.62281564  0.34657979  0.41252836    -0.06600
C376        C  0.59949867  0.33654418  0.40981065     0.14300
C377        C  0.58361400  0.31535589  0.43402503    -0.23400
H378        H  0.57253975  0.33980471  0.38246366     0.15600
H379        H  0.65372472  0.37446268  0.39170702     0.15600
C380        C  0.64157216  0.39919354  0.34236421    -0.23400
H381        H  0.57217166  0.31816216  0.45620473     0.05800
H382        H  0.59143395  0.30869573  0.45721256     0.09000
H383        H  0.57380952  0.30265856  0.40736124     0.09000
H384        H  0.63842279  0.41212009  0.35689660     0.09000
H385        H  0.63849026  0.39774302  0.30408731     0.09000
H386        H  0.65922606  0.40456479  0.34786613     0.05800
C387        C  0.75246954  0.39089221  0.37333136    -0.20000
C388        C  0.76303732  0.37912186  0.36027581    -0.06600
C389        C  0.75304888  0.35644293  0.37062145     0.14300
C390        C  0.73273034  0.34611565  0.39370082    -0.20100
C391        C  0.72189548  0.35772382  0.40663355    -0.06600
C392        C  0.73187807  0.38047716  0.39575476     0.14300
C393        C  0.72126444  0.39407192  0.40791301    -0.23400
H394        H  0.76011524  0.40820191  0.36441889     0.15600
H395        H  0.72537289  0.32875865  0.40203368     0.15600
C396        C  0.76328871  0.34257763  0.35773646    -0.23400
H397        H  0.73165658  0.41154095  0.39725718     0.05800
H398        H  0.71859508  0.39385421  0.44624264     0.09000
H399        H  0.70528708  0.38743343  0.38942213     0.09000
H400        H  0.77936827  0.35200155  0.33979476     0.09000
H401        H  0.75205164  0.32900218  0.33409734     0.09000
H402        H  0.76591940  0.33536522  0.38994933     0.05800
C403        C  0.73541727  0.34387324  0.10876359    -0.20000
C404        C  0.72992031  0.35721792  0.08170031    -0.06600
C405        C  0.74642531  0.37967578  0.07452327     0.14300
C406        C  0.76686001  0.38822403  0.09720658    -0.20100
C407        C  0.77153851  0.37514666  0.12650386    -0.06600
C408        C  0.75594276  0.35253859  0.13105147     0.14300
C409        C  0.76080017  0.33771422  0.16075342    -0.23400
H410        H  0.72345999  0.32660254  0.11338377     0.15600
H411        H  0.77882425  0.40561259  0.09444063     0.15600
C412        C  0.74299148  0.39509866  0.04350139    -0.23400
H413        H  0.74712209  0.32038932  0.15980433     0.05800
H414        H  0.76333037  0.34332859  0.19774567     0.09000
H415        H  0.77590619  0.33805260  0.14760314     0.09000
H416        H  0.72923504  0.39714627  0.05704876     0.09000
H417        H  0.73955862  0.38854621  0.00721198     0.09000
H418        H  0.75779049  0.41175694  0.04204093     0.05800
C419        C  0.57778127  0.47545071  0.14628193    -0.20000
C420        C  0.56541917  0.45244206  0.15026665    -0.06600
C421        C  0.54770958  0.44059101  0.11877789     0.14300
C422        C  0.54348962  0.45188821  0.08313421    -0.20100
C423        C  0.55605898  0.47484476  0.07876977    -0.06600
C424        C  0.57333959  0.48674430  0.11105520     0.14300
C425        C  0.58777012  0.51133099  0.10710082    -0.23400
H426        H  0.59141974  0.48454585  0.17003882     0.15600
H427        H  0.53043374  0.44268108  0.05822148     0.15600
C428        C  0.53300210  0.41599724  0.12167791    -0.23400
H429        H  0.60104433  0.51795644  0.13377180     0.05800
H430        H  0.57779785  0.51947367  0.11246890     0.09000
H431        H  0.59541762  0.51564607  0.57256500     0.09000
H432        H  0.51568129  0.41209569  0.12628655     0.09000
H433        H  0.53712868  0.40857535  0.15138210     0.09000
H434        H  0.53433595  0.40822727  0.08878461     0.05800
C435        C  0.58929952  0.46514925  0.41560553    -0.20000
C436        C  0.57062181  0.44674787  0.39712003    -0.06600
C437        C  0.54992508  0.43976782  0.41849306     0.14300
C438        C  0.54823836  0.45223107  0.45548489    -0.20100
C439        C  0.56670177  0.47146641  0.47187760    -0.06600
C440        C  0.58757235  0.47759567  0.45253738     0.14300
C441        C  0.60798116  0.49761403  0.47025260    -0.23400
H442        H  0.60524935  0.47011339  0.40017323     0.15600
H443        H  0.53211723  0.44774266  0.46934121     0.15600
C444        C  0.52921205  0.41970878  0.40214535    -0.23400
H445        H  0.62288099  0.49926105  0.95261824     0.05800
H446        H  0.60958788  0.49541281  0.00854488     0.09000
H447        H  0.60686774  0.51234383  0.96435410     0.09000
H448        H  0.53213790  0.41090207  0.37312764     0.09000
H449        H  0.51728738  0.42468357  0.38987361     0.09000
H450        H  0.52178386  0.40802022  0.43169266     0.05800
C451        C  0.89238359  0.45344266  0.11309698    -0.20000
C452        C  0.88774837  0.43453929  0.13890327    -0.06600
C453        C  0.90024504  0.42408468  0.12991647     0.14300
C454        C  0.91653903  0.43234784  0.09468285    -0.20100
C455        C  0.92074563  0.45086442  0.06794095    -0.06600
C456        C  0.90883497  0.46183023  0.07817628     0.14300
C457        C  0.91339041  0.48259811  0.05346526    -0.23400
H458        H  0.88301783  0.46167581  0.12013740     0.15600
H459        H  0.92563385  0.42392247  0.08680920     0.15600
C460        C  0.89594210  0.40384205  0.15668425    -0.23400
H461        H  0.91783279  0.49595428  0.07958569     0.05800
H462        H  0.89845162  0.47982420  0.03432605     0.09000
H463        H  0.92723468  0.48826786  0.02835811     0.09000
H464        H  0.87865120  0.39062714  0.15126584     0.09000
H465        H  0.89877578  0.40777156  0.19457842     0.09000
H466        H  0.90693954  0.39751536  0.14510175     0.05800
C467        C  0.88110873  0.41590474  0.40650418    -0.20000
C468        C  0.87778254  0.43214742  0.38567630    -0.06600
C469        C  0.88853633  0.45369149  0.40470417     0.14300
C470        C  0.90368983  0.45879743  0.44140306    -0.20100
C471        C  0.90781568  0.44276327  0.46082164    -0.06600
C472        C  0.89578044  0.42089239  0.44395102     0.14300
C473        C  0.89899283  0.40268381  0.46326958    -0.23400
H474        H  0.87242376  0.39922270  0.39286049     0.15600
H475        H  0.91352134  0.47580781  0.45232993     0.15600
C476        C  0.88494866  0.47179443  0.38615761    -0.23400
H477        H  0.88292712  0.38897810  0.47533959     0.05800
H478        H  0.91040269  0.40812088  0.49352741     0.09000
H479        H  0.90565446  0.39646618  0.43547646     0.09000
H480        H  0.87896269  0.47822232  0.41488799     0.09000
H481        H  0.87269309  0.46619274  0.35750634     0.09000
H482        H  0.90073268  0.48541340  0.37263629     0.05800
C483        C  0.01418872  0.49437335  0.06836428    -0.20000
C484        C  0.01600937  0.51511753  0.06267500    -0.06600
C485        C  0.99709896  0.51700751  0.07186526     0.14300
C486        C  0.97620113  0.49788326  0.07258534    -0.20100
C487        C  0.97416883  0.47713598  0.06500709    -0.06600
C488        C  0.99330523  0.47526715  0.07045189     0.14300
C489        C  0.99164223  0.45297564  0.07299290    -0.23400
H490        H  0.02862123  0.49266507  0.06376493     0.15600
H491        H  0.96163730  0.49953397  0.07152650     0.15600
C492        C  0.99883910  0.53930652  0.07571155    -0.23400
H493        H  0.00808998  0.45444126  0.07706972     0.05800
H494        H  0.98401941  0.44319374  0.54234098     0.09000
H495        H  0.98144616  0.44391544  0.10369237     0.09000
H496        H  0.00540178  0.54882939  0.54237184     0.09000
H497        H  0.00997546  0.54859582  0.10510281     0.09000
H498        H  0.98256098  0.53787238  0.08268709     0.05800
C499        C  0.10311835  0.54320562  0.40200902    -0.20000
C500        C  0.11211480  0.56406079  0.38141887    -0.06600
C501        C  0.10643974  0.57940577  0.39936696     0.14300
C502        C  0.09121719  0.57322270  0.43637215    -0.20100
C503        C  0.08125922  0.55193327  0.45559310    -0.06600
C504        C  0.08753132  0.53682996  0.43832768     0.14300
C505        C  0.07687508  0.51352386  0.45592741    -0.23400
H506        H  0.10772371  0.53158193  0.38828850     0.15600
H507        H  0.08580701  0.58453372  0.44803754     0.15600
C508        C  0.11581710  0.60198103  0.37819813    -0.23400
H509        H  0.08256419  0.50354745  0.43620325     0.05800
H510        H  0.05872091  0.50539229  0.45233263     0.09000
H511        H  0.08132079  0.51361385  0.49299422     0.09000
H512        H  0.11127219  0.60048392  0.34062977     0.09000
H513        H  0.13401616  0.61092359  0.38137202     0.09000
H514        H  0.10950576  0.61190271  0.39594584     0.05800
C515        C  0.07582238  0.52896872  0.08037610    -0.20000
C516        C  0.06910396  0.54348601  0.06343897    -0.06600
C517        C  0.07789355  0.56459101  0.08416986     0.14300
C518        C  0.09397418  0.57112006  0.11951662    -0.20100
C519        C  0.10156150  0.55701259  0.13473451    -0.06600
C520        C  0.09211391  0.53557010  0.11532181     0.14300
C521        C  0.09945226  0.51975696  0.13124191    -0.23400
H522        H  0.06849483  0.51251663  0.06593726     0.15600
H523        H  0.10101419  0.58746258  0.13466873     0.15600
C524        C  0.07023169  0.58021285  0.06875049    -0.23400
H525        H  0.09049605  0.50369383  0.11268903     0.05800
H526        H  0.09635227  0.51670379  0.16934474     0.09000
H527        H  0.11730840  0.52682384  0.12426478     0.09000
H528        H  0.05222039  0.57257476  0.07440873     0.09000
H529        H  0.07393601  0.58409384  0.03109475     0.09000
H530        H  0.07846707  0.59593195  0.08870385     0.05800
C531        C  0.36236115  0.60382624  0.35412113    -0.20000
C532        C  0.38536984  0.61433372  0.35497646    -0.06600
C533        C  0.39743859  0.63460288  0.37888096     0.14300
C534        C  0.38603179  0.64351548  0.40260180    -0.20100
C535        C  0.36291619  0.63264611  0.40283535    -0.06600
C536        C  0.35094595  0.61267603  0.37762058     0.14300
C537        C  0.32616654  0.60083615  0.37421868    -0.23400
H538        H  0.35330042  0.58864888  0.33436260     0.15600
H539        H  0.39525834  0.65869625  0.42225839     0.15600
C540        C  0.42221355  0.64724129  0.37969965    -0.23400
H541        H  0.31987361  0.58673252  0.34940877     0.05800
H542        H  0.32072537  0.61234959  0.36154622     0.09000
H543        H  0.31859063  0.59410481  0.40875011     0.09000
H544        H  0.42819293  0.66375992  0.36405425     0.09000
H545        H  0.42967307  0.63891352  0.35992598     0.09000
H546        H  0.42802414  0.64930505  0.41645619     0.05800
C547        C  0.37972301  0.62616996  0.07099596    -0.20000
C548        C  0.35716070  0.61869963  0.07892975    -0.06600
C549        C  0.34499698  0.59936392  0.10597633     0.14300
C550        C  0.35604966  0.58941542  0.12712090    -0.20100
C551        C  0.37884639  0.59799411  0.12162117    -0.06600
C552        C  0.39063503  0.61618219  0.09183160     0.14300
C553        C  0.41503657  0.62637381  0.08348278    -0.23400
H554        H  0.38934096  0.64041558  0.04908300     0.15600
H555        H  0.34711493  0.57562005  0.15058649     0.15600
C556        C  0.32060121  0.58932107  0.11385419    -0.23400
H557        H  0.42354077  0.64373970  0.09579649     0.05800
H558        H  0.41815861  0.62606697  0.04543171     0.09000
H559        H  0.42241692  0.61769050  0.10175507     0.09000
H560        H  0.31184066  0.58431123  0.07981431     0.09000
H561        H  0.31707015  0.60136741  0.13167593     0.09000
H562        H  0.31396093  0.57439460  0.13614464     0.05800
C563        C  0.23845099  0.62671179  0.35608697    -0.20000
C564        C  0.22553177  0.60368290  0.35592995    -0.06600
C565        C  0.23309315  0.59106186  0.37966323     0.14300
C566        C  0.25318430  0.60185543  0.40408137    -0.20100
C567        C  0.26588662  0.62500120  0.40534262    -0.06600
C568        C  0.25851017  0.63754745  0.38037255     0.14300
C569        C  0.27205209  0.66230688  0.37769996    -0.23400
H570        H  0.23285767  0.63624804  0.33651989     0.15600
H571        H  0.25871585  0.59217944  0.42330679     0.15600
C572        C  0.22000691  0.56628259  0.37897398    -0.23400
H573        H  0.26454766  0.66922916  0.35383459     0.05800
H574        H  0.28875782  0.66719957  0.36425662     0.09000
H575        H  0.27336057  0.66974031  0.41273019     0.09000
H576        H  0.21806584  0.56018914  0.34239031     0.09000
H577        H  0.20349403  0.56063388  0.39443025     0.09000
H578        H  0.22821218  0.55890672  0.39932252     0.05800
C579        C  0.24455449  0.60336474  0.07281998    -0.20000
C580        C  0.26002605  0.62562801  0.08240556    -0.06600
C581        C  0.25319048  0.63796485  0.11056362     0.14300
C582        C  0.23199368  0.62741672  0.13026021    -0.20100
C583        C  0.21732745  0.60492128  0.12304720    -0.06600
C584        C  0.22342541  0.59291188  0.09272850     0.14300
C585        C  0.20838872  0.56885356  0.08222934    -0.23400
H586        H  0.24898580  0.59373694  0.05006252     0.15600
H587        H  0.22724623  0.63644561  0.15410607     0.15600
C588        C  0.26809666  0.66196914  0.12178092    -0.23400
H589        H  0.21616065  0.55923126  0.09415895     0.05800
H590        H  0.20555915  0.56654350  0.04389431     0.09000
H591        H  0.19213882  0.56212425  0.09956623     0.09000
H592        H  0.27279285  0.67184988  0.08917362     0.09000
H593        H  0.28292278  0.66401827  0.14009207     0.09000
H594        H  0.26002863  0.66860265  0.14512866     0.05800
C595        C  0.35806323  0.74327203  0.15596099    -0.20000
C596        C  0.38088219  0.75717912  0.15355726    -0.06600
C597        C  0.39383518  0.75036447  0.12833987     0.14300
C598        C  0.38344372  0.72998187  0.10464978    -0.20100
C599        C  0.36040121  0.71646221  0.10537300    -0.06600
C600        C  0.34766459  0.72304738  0.13232823     0.14300
C601        C  0.32317570  0.70846440  0.13783259    -0.23400
H602        H  0.34835037  0.74827617  0.17694428     0.15600
H603        H  0.39326441  0.72499125  0.08404593     0.15600
C604        C  0.41849264  0.76452906  0.12670508    -0.23400
H605        H  0.31618478  0.71538898  0.16330772     0.05800
H606        H  0.31968456  0.69212919  0.15092028     0.09000
H607        H  0.31469625  0.70653594  0.10400506     0.09000
H608        H  0.42525953  0.76729437  0.16274037     0.09000
H609        H  0.42306570  0.78065693  0.11059640     0.09000
H610        H  0.42616795  0.75670208  0.10575651     0.05800
C611        C  0.38447313  0.76420430  0.41645503    -0.20000
C612        C  0.37076587  0.76678306  0.38488032    -0.06600
C613        C  0.34889489  0.74960636  0.37886698     0.14300
C614        C  0.34185634  0.72942814  0.40137822    -0.20100
C615        C  0.35619275  0.72592424  0.42978077    -0.06600
C616        C  0.37761583  0.74405116  0.43898261     0.14300
C617        C  0.39373527  0.74260530  0.47159506    -0.23400
H618        H  0.40126665  0.77752338  0.42052720     0.15600
H619        H  0.32522682  0.71612240  0.39544893     0.15600
C620        C  0.33328535  0.75234954  0.34712780    -0.23400
H621        H  0.40925297  0.75860521  0.47501878     0.05800
H622        H  0.39818522  0.73041254  0.45816229     0.09000
H623        H  0.38641086  0.73791618  0.50702012     0.09000
H624        H  0.33957583  0.75535719  0.31065615     0.09000
H625        H  0.33159288  0.76653657  0.35929162     0.09000
H626        H  0.31667490  0.73746265  0.34698156     0.05800
C627        C  0.44494069  0.53702588  0.44857537    -0.20000
C628        C  0.46738876  0.55177748  0.45637613    -0.06600
C629        C  0.47813044  0.57107541  0.42860854     0.14300
C630        C  0.46653199  0.57459730  0.39288931    -0.20100
C631        C  0.44467568  0.55903423  0.38273313    -0.06600
C632        C  0.43351781  0.54027621  0.41168306     0.14300
C633        C  0.40995338  0.52315601  0.40216941    -0.23400
H634        H  0.43686888  0.52190472  0.46861517     0.15600
H635        H  0.47482146  0.58921673  0.37133443     0.15600
C636        C  0.50218088  0.58766597  0.43490285    -0.23400
H637        H  0.40391602  0.50925598  0.42725552     0.05800
H638        H  0.40851370  0.51645000  0.36625872     0.09000
H639        H  0.39916988  0.53052201  0.40532376     0.09000
H640        H  0.51245250  0.57978261  0.43066372     0.09000
H641        H  0.50489004  0.59530359  0.46994094     0.09000
H642        H  0.50797907  0.60117331  0.40887696     0.05800
C643        C  0.46716863  0.56814434  0.11651951    -0.20000
C644        C  0.44751586  0.55116105  0.13518497    -0.06600
C645        C  0.43975334  0.52938812  0.11896392     0.14300
C646        C  0.45142594  0.52527818  0.08346380    -0.20100
C647        C  0.47078220  0.54243888  0.06384412    -0.06600
C648        C  0.47888810  0.56407587  0.08145176     0.14300
C649        C  0.49997791  0.58329219  0.06442011    -0.23400
H650        H  0.47333543  0.58483328  0.12915888     0.15600
H651        H  0.44521231  0.50870157  0.07018647     0.15600
C652        C  0.41904250  0.51060362  0.13886935    -0.23400
H653        H  0.51163095  0.59054898  0.09410774     0.05800
H654        H  0.49659326  0.59604501  0.05017100     0.09000
H655        H  0.50802489  0.57855874  0.03696725     0.09000
H656        H  0.40498076  0.51340509  0.13268978     0.09000
H657        H  0.42103329  0.50943643  0.17710407     0.09000
H658        H  0.41515419  0.49463635  0.12252626     0.05800
C659        C  0.49352829  0.49645134  0.06229882    -0.20000
C660        C  0.50090460  0.51918870  0.06443958    -0.06600
C661        C  0.52220342  0.53303741  0.08256737     0.14300
C662        C  0.53703634  0.52501245  0.08655712    -0.20100
C663        C  0.53120973  0.50369982  0.07096262    -0.06600
C664        C  0.50860115  0.48859312  0.06411272     0.14300
C665        C  0.50060251  0.46438884  0.55251534    -0.23400
H666        H  0.47662355  0.48492084  0.54952833     0.15600
H667        H  0.55422783  0.53660073  0.09335157     0.15600
C668        C  0.53042771  0.55713623  0.09041823    -0.23400
H669        H  0.48253131  0.45486110  0.54696775     0.05800
H670        H  0.50489714  0.45719831  0.08214040     0.09000
H671        H  0.50869404  0.46315442  0.52007691     0.09000
H672        H  0.51922934  0.55915911  0.11494780     0.09000
H673        H  0.53117578  0.56518556  0.05661559     0.09000
H674        H  0.54720255  0.56558756  0.10578208     0.05800
C675        C  0.46116942  0.90044172  0.43166268    -0.20000
C676        C  0.45235051  0.91390419  0.44411252    -0.06600
C677        C  0.43317578  0.91079131  0.42105896     0.14300
C678        C  0.42366010  0.89478846  0.38528533    -0.20100
C679        C  0.43264595  0.88146608  0.37260598    -0.06600
C680        C  0.45156786  0.88428569  0.39639733     0.14300
C681        C  0.46146603  0.87000366  0.38493621    -0.23400
H682        H  0.47559461  0.90253306  0.44987121     0.15600
H683        H  0.40885795  0.89227535  0.36789437     0.15600
C684        C  0.42229784  0.92377473  0.43553445    -0.23400
H685        H  0.47632420  0.87448023  0.40633726     0.05800
H686        H  0.46628954  0.87192076  0.34746095     0.09000
H687        H  0.44929104  0.85247686  0.39192213     0.09000
H688        H  0.43357160  0.94149916  0.42901898     0.09000
H689        H  0.41808545  0.92121110  0.47332351     0.09000
H690        H  0.40692361  0.91871020  0.41557685     0.05800
C691        C  0.42711106  0.89454014  0.06503470    -0.20000
C692        C  0.44905926  0.90238808  0.05154013    -0.06600
C693        C  0.46124893  0.89379176  0.07358692     0.14300
C694        C  0.45147717  0.87813774  0.10932953    -0.20100
C695        C  0.43010474  0.87148861  0.12495307    -0.06600
C696        C  0.41753317  0.87928218  0.10175742     0.14300
C697        C  0.39435991  0.87214350  0.11704695    -0.23400
H698        H  0.41803177  0.90169973  0.04942228     0.15600
H699        H  0.46089421  0.87179736  0.12678438     0.15600
C700        C  0.48504845  0.90208790  0.06139823    -0.23400
H701        H  0.38693491  0.88002580  0.09577508     0.05800
H702        H  0.39430841  0.87675622  0.15426267     0.09000
H703        H  0.38396982  0.85401588  0.11321553     0.09000
H704        H  0.49502828  0.91998233  0.06894209     0.09000
H705        H  0.48655235  0.89913900  0.02380029     0.09000
H706        H  0.49205840  0.89357734  0.08189402     0.05800
C707        C  0.52126923  0.99611261  0.92791012    -0.20000
C708        C  0.51538415  0.01188778  0.44208479    -0.06600
C709        C  0.49278273  0.00546322  0.44209804     0.14300
C710        C  0.47697095  0.98290626  0.43861392    -0.20100
C711        C  0.48344673  0.96681250  0.43984120    -0.06600
C712        C  0.50551032  0.97353817  0.92698645     0.14300
C713        C  0.51336759  0.95724699  0.92048533    -0.23400
H714        H  0.53854287  0.00091075  0.92580540     0.15600
H715        H  0.45996133  0.97793802  0.44607627     0.15600
C716        C  0.48524347  0.02179845  0.45231756    -0.23400
H717        H  0.52178008  0.96003375  0.88612217     0.05800
H718        H  0.49953054  0.94010466  0.92108051     0.09000
H719        H  0.52508963  0.95932292  0.94876851     0.09000
H720        H  0.49155330  0.03460905  0.42477094     0.09000
H721        H  0.49125630  0.02955006  0.48712973     0.09000
H722        H  0.46701696  0.01386745  0.45251041     0.05800
N723        N  0.46212306  0.92924155  0.98237639    -0.03200
C724        C  0.47473244  0.95167634  0.98069934    -0.00600
C725        C  0.48051401  0.96049208  0.52538746    -0.23500
C726        C  0.47168716  0.94322720  0.55571022    -0.23700
C727        C  0.46063845  0.92441855  0.52894374    -0.00700
H728        H  0.49058317  0.97768162  0.53476284     0.13100
H729        H  0.47327299  0.94419591  0.59343712     0.13100
N730        N  0.48100006  0.53769059  0.52459708    -0.03200
C731        C  0.49314212  0.52723462  0.52474415    -0.00600
C732        C  0.50055487  0.52671707  0.98006337    -0.23500
C733        C  0.49234948  0.53628631  0.95106057    -0.23700
C734        C  0.48070509  0.54316973  0.97870202    -0.00700
H735        H  0.51057903  0.51960606  0.96966216     0.13100
H736        H  0.49420736  0.53764788  0.91339235     0.13100
N737        N  0.41664586  0.85397797  0.75188771    -0.36300
N738        N  0.40588657  0.81744030  0.68660866    -0.56900
N739        N  0.38887766  0.78755459  0.76421516    -0.36300
N740        N  0.40066930  0.82323821  0.82975024    -0.56900
C741        C  0.42581892  0.86510245  0.71171734     0.27300
C742        C  0.42585133  0.86825354  0.78833340     0.27300
C743        C  0.39047760  0.77449682  0.73126486     0.27300
C744        C  0.38597267  0.77723691  0.80552115     0.27300
C745        C  0.40999485  0.83338593  0.65521489     0.35900
C746        C  0.39667111  0.79819282  0.66258835     0.35900
C747        C  0.40633957  0.84196816  0.85372186     0.35900
C748        C  0.38824862  0.80632467  0.85877040     0.35900
C749        C  0.44047127  0.88694954  0.72266771    -0.21600
C750        C  0.44064575  0.88887436  0.77082044    -0.21600
C751        C  0.38883041  0.75584458  0.75186432    -0.21600
C752        C  0.38595627  0.75754198  0.79879410    -0.21600
C753        C  0.40377330  0.82423027  0.61080073    -0.22700
C754        C  0.39520531  0.80188515  0.61557075    -0.22700
C755        C  0.39759814  0.83692221  0.89858853    -0.22700
C756        C  0.38586233  0.81427113  0.90156710    -0.22700
C757        C  0.42098052  0.85621615  0.66539919    -0.18000
C758        C  0.42076613  0.86343680  0.83680439    -0.18000
C759        C  0.38125265  0.78406774  0.84839734    -0.18000
C760        C  0.39041595  0.77751826  0.68268180    -0.18000
H761        H  0.45020979  0.90015352  0.69851626     0.14900
H762        H  0.45042950  0.90384663  0.79064098     0.14900
H763        H  0.38894563  0.74208997  0.73461114     0.14900
H764        H  0.38356569  0.74534494  0.82480112     0.14900
H765        H  0.40542062  0.83277119  0.57824910     0.13200
H766        H  0.38891186  0.78980314  0.58763930     0.13200
H767        H  0.39965370  0.84835959  0.92637532     0.13200
H768        H  0.37732817  0.80477926  0.93219901     0.13200
H769        H  0.40359854  0.83796676  0.75365811     0.26400
H770        H  0.38631464  0.80076337  0.75822969     0.26400
O771        O  0.32708999  0.62457999  0.55639839    -0.85100
O772        O  0.28669997  0.62292609  0.53501203    -0.82100
C773        C  0.28215630  0.63529395  0.55938191     0.98400
O774        O  0.29556864  0.65568056  0.56094373    -0.82100
O775        O  0.33401402  0.69541260  0.54775819    -0.84800
C776        C  0.34986504  0.69748034  0.57262457     1.02900
O777        O  0.35787910  0.68495644  0.56640696    -0.77600
O778        O  0.36035026  0.64839689  0.53380258    -0.77700
C779        C  0.34752240  0.63123439  0.55637498     1.02900
O780        O  0.33613803  0.62660710  0.95930606    -0.85100
O781        O  0.29813440  0.62770393  0.93926571    -0.82100
C782        C  0.28545024  0.63563789  0.93649603     0.98400
O783        O  0.28803063  0.65120997  0.96319465    -0.82200
O784        O  0.32759722  0.68973447  0.94946121    -0.84800
C785        C  0.34776649  0.70386043  0.95131734     1.02900
O786        O  0.36058688  0.69966460  0.97415522    -0.77600
O787        O  0.35897630  0.66105747  0.94085970    -0.77700
C788        C  0.35178515  0.64069388  0.93472198     1.02800
Cr789      Cr  0.31324815  0.62793127  0.49837844     1.93700
Cr790      Cr  0.31262093  0.67171228  0.50502264     1.93200
Cr791      Cr  0.35684766  0.67212976  0.50369417     1.39100
O792        O  0.32748599  0.65722526  0.50257058    -1.22800
N793        N  0.42992538  0.56139196  0.75546233    -0.36300
N794        N  0.41242223  0.57471502  0.67697832    -0.56900
N795        N  0.39655795  0.59512314  0.74275157    -0.36300
N796        N  0.41457334  0.58318719  0.82088765    -0.56900
C797        C  0.44020204  0.55757123  0.71907053     0.27300
C798        C  0.43952198  0.56021054  0.79580860     0.27300
C799        C  0.39332534  0.60259944  0.70177632     0.27300
C800        C  0.39605619  0.60841157  0.77662223     0.27300
C801        C  0.42015286  0.56331641  0.65275491     0.35900
C802        C  0.39971482  0.57863207  0.64728313     0.35900
C803        C  0.42077377  0.57306606  0.85251115     0.35900
C804        C  0.40395104  0.59181105  0.84496413     0.35900
C805        C  0.45615347  0.55334568  0.73674494    -0.21600
C806        C  0.45563425  0.55485593  0.78487062    -0.21600
C807        C  0.39093948  0.62090711  0.70973605    -0.21600
C808        C  0.39271495  0.62459206  0.75698798    -0.21600
C809        C  0.41249797  0.56022011  0.60703123    -0.22700
C810        C  0.39932504  0.56967547  0.60376547    -0.22700
C811        C  0.41439462  0.57569315  0.89709837    -0.22700
C812        C  0.40354042  0.58739222  0.89220104    -0.22700
C813        C  0.43516499  0.55699528  0.67044796    -0.21700
C814        C  0.43390606  0.56338073  0.84229833    -0.18000
C815        C  0.39599284  0.60489709  0.82504361    -0.18000
C816        C  0.39067508  0.59234292  0.65781209    -0.18000
H817        H  0.46698017  0.54939649  0.71704167     0.14900
H818        H  0.46606060  0.55234942  0.80899320     0.14900
H819        H  0.38782698  0.63043481  0.68427448     0.14900
H820        H  0.39111371  0.63737701  0.77499954     0.14900
H821        H  0.41618002  0.55216926  0.57882784     0.13200
H822        H  0.39119459  0.57068628  0.57250176     0.13200
H823        H  0.41756571  0.57014849  0.92993848     0.13200
H824        H  0.39669416  0.59257701  0.92027057     0.13200
H825        H  0.41601125  0.56299198  0.75330199     0.26400
H826        H  0.39575530  0.58003194  0.74775427     0.26400
N827        N  0.12994320  0.57027584  0.75381593    -0.36300
N828        N  0.16585703  0.58029628  0.82080304    -0.56900
N829        N  0.19534594  0.59034989  0.74273737    -0.36300
N830        N  0.15990865  0.57861250  0.67543304    -0.56900
C831        C  0.11854011  0.56434096  0.79467837     0.27300
C832        C  0.11521146  0.56235321  0.71803821     0.27300
C833        C  0.20848922  0.59088558  0.77790366     0.27300
C834        C  0.20544723  0.59065075  0.70224315     0.27300
C835        C  0.15023563  0.57840964  0.85130394     0.35900
C836        C  0.18503597  0.58917366  0.84486312     0.35900
C837        C  0.14189354  0.57492520  0.65093084     0.35900
C838        C  0.17725272  0.58811450  0.64572958     0.35900
C839        C  0.09619433  0.55303209  0.78468218    -0.21600
C840        C  0.09411188  0.55172195  0.73658096    -0.21600
C841        C  0.22700513  0.59124474  0.75952047    -0.21600
C842        C  0.22507324  0.59104523  0.71179255    -0.21600
C843        C  0.15946919  0.58556136  0.89532408    -0.22700
C844        C  0.18152661  0.59247823  0.89114876    -0.22700
C845        C  0.14776984  0.58154456  0.60488619    -0.22700
C846        C  0.17022042  0.59016392  0.60177612    -0.22700
C847        C  0.12758753  0.56944786  0.84078581    -0.18000
C848        C  0.12014762  0.56511113  0.66915181    -0.18000
C849        C  0.19908341  0.59373870  0.65732792    -0.18000
C850        C  0.20552979  0.59371411  0.82576505    -0.18000
H851        H  0.08271604  0.54640676  0.80948096     0.14900
H852        H  0.07875341  0.54394071  0.71745948     0.14900
H853        H  0.24087507  0.59234805  0.77845958     0.14900
H854        H  0.23721664  0.59199374  0.68695393     0.14900
H855        H  0.15119905  0.58585716  0.92716490     0.13200
H856        H  0.19355816  0.59904274  0.91900851     0.13200
H857        H  0.13704962  0.58049140  0.57659075     0.13200
H858        H  0.18015004  0.59674806  0.57057774     0.13200
H859        H  0.14674558  0.58065923  0.75080532     0.26400
H860        H  0.18242668  0.59353586  0.74585022     0.26400
N861        N  0.05393244  0.53717191  0.52438805    -0.03200
C862        C  0.03184452  0.52972531  0.52687844    -0.00600
C863        C  0.02427092  0.53201077  0.98373370    -0.23500
C864        C  0.04180000  0.54111911  0.95388447    -0.23700
C865        C  0.05983434  0.54419333  0.97913988    -0.00700
H866        H  0.00730261  0.52614558  0.97414799     0.13100
H867        H  0.04133232  0.54433512  0.91700666     0.13100
N868        N  0.93557822  0.45662320  0.52861358    -0.03200
C869        C  0.95733683  0.46247135  0.53044144    -0.00600
C870        C  0.96445549  0.46036174  0.98601689    -0.23500
C871        C  0.94692443  0.45292625  0.95655708    -0.23700
C872        C  0.92952770  0.45086031  0.98293510    -0.00700
H873        H  0.98113737  0.46527881  0.97552028     0.13100
H874        H  0.94692653  0.44983500  0.91940143     0.13100
N875        N  0.55288730  0.48560714  0.53917917    -0.03200
C876        C  0.54744386  0.50185326  0.54081042    -0.00600
C877        C  0.55443401  0.51433042  0.99964563    -0.23500
C878        C  0.56387232  0.50533542  0.97194128    -0.23700
C879        C  0.56280998  0.48788233  0.99638120    -0.00700
H880        H  0.55108750  0.52727009  0.98946722     0.13100
H881        H  0.56939552  0.50994660  0.93621773     0.13100
N882        N  0.85946538  0.42225150  0.75855735    -0.36300
N883        N  0.82856172  0.40641859  0.68021171    -0.56900
N884        N  0.79282517  0.39178481  0.74729395    -0.36300
N885        N  0.82299318  0.40884506  0.82503363    -0.56900
C886        C  0.87378900  0.43084441  0.72211838     0.27300
C887        C  0.87080300  0.43102823  0.79881763     0.27300
C888        C  0.78221986  0.38956706  0.70655035     0.27300
C889        C  0.77923734  0.39106080  0.78181488     0.27300
C890        C  0.84726252  0.41199430  0.65615044     0.35900
C891        C  0.81152681  0.39420572  0.65105835     0.35900
C892        C  0.83940143  0.41456638  0.85620996     0.35900
C893        C  0.80395202  0.39844499  0.84950364     0.35900
C894        C  0.89458512  0.44509009  0.73966151    -0.21600
C895        C  0.89274593  0.44507417  0.78779812    -0.21600
C896        C  0.76187476  0.38774490  0.71528587    -0.21600
C897        C  0.75992927  0.38852308  0.76276004    -0.21600
C898        C  0.84202900  0.40349331  0.61103970    -0.22700
C899        C  0.81937259  0.39208885  0.60796224    -0.22700
C900        C  0.83068525  0.40838820  0.90096088    -0.22700
C901        C  0.80821128  0.39805333  0.89660934    -0.22700
C902        C  0.86895448  0.42537285  0.67369887    -0.18000
C903        C  0.86215734  0.42598958  0.84533857    -0.18000
C904        C  0.78282367  0.39023202  0.82999230    -0.18000
C905        C  0.78915422  0.38640934  0.66224901    -0.18000
H906        H  0.90965128  0.45429944  0.71988385     0.14900
H907        H  0.90612785  0.45435720  0.81191406     0.14900
H908        H  0.74932655  0.38530473  0.69016120     0.14900
H909        H  0.74559421  0.38681267  0.78091254     0.14900
H910        H  0.85334973  0.40530327  0.58324819     0.13200
H911        H  0.80979973  0.38361000  0.57733517     0.13200
H912        H  0.83954520  0.41108258  0.93349397     0.13200
H913        H  0.79638872  0.39128280  0.92488631     0.13200
H914        H  0.84333320  0.40955855  0.75653517     0.26400
H915        H  0.80667509  0.39019926  0.75151023     0.26400
N916        N  0.59546419  0.38926228  0.75478189    -0.36300
N917        N  0.58745095  0.41561921  0.68999002    -0.56900
N918        N  0.57559054  0.43434460  0.76958454    -0.36300
N919        N  0.58179671  0.40567860  0.83413028    -0.56900
C920        C  0.59814241  0.38136961  0.71365600     0.27300
C921        C  0.59227453  0.37415947  0.78760419     0.27300
C922        C  0.56830370  0.44171861  0.73366036     0.27300
C923        C  0.56874640  0.43907940  0.81036171     0.27300
C924        C  0.59884746  0.40954395  0.66089772     0.35900
C925        C  0.58404823  0.43044197  0.66676173     0.35900
C926        C  0.58934974  0.39390191  0.85708479     0.35900
C927        C  0.58061788  0.41939346  0.86596292     0.35900
C928        C  0.59627010  0.36086847  0.72017343    -0.21600
C929        C  0.59248972  0.35627691  0.76696136    -0.21600
C930        C  0.55685513  0.45149561  0.75209792    -0.21600
C931        C  0.55736428  0.45007470  0.80025387    -0.21600
C932        C  0.60249981  0.42033177  0.61855669    -0.22700
C933        C  0.59286900  0.43336020  0.62201116    -0.22700
C934        C  0.59227572  0.39955827  0.90405067    -0.22700
C935        C  0.58665123  0.41566527  0.90976184    -0.22700
C936        C  0.60455578  0.39325839  0.67150509    -0.18000
C937        C  0.59350504  0.37802988  0.83605518    -0.18000
C938        C  0.57331263  0.43457627  0.85643188    -0.18000
C939        C  0.57270402  0.44102021  0.68492429    -0.18000
H940        H  0.59817268  0.35062087  0.69419583     0.14900
H941        H  0.59124199  0.34195503  0.78421558     0.14900
H942        H  0.54923937  0.45924702  0.73290573     0.14900
H943        H  0.55009746  0.45639615  0.82496113     0.14900
H944        H  0.61078496  0.41863028  0.58811729     0.13200
H945        H  0.59263615  0.44398273  0.59486047     0.13200
H946        H  0.59791486  0.39282783  0.93125539     0.13200
H947        H  0.58703573  0.42372626  0.94244861     0.13200
H948        H  0.59972358  0.40552723  0.76114500     0.26400
H949        H  0.58640912  0.42836224  0.76688925     0.26400
O950        O  0.66264750  0.35676451  0.56167909    -0.85100
O951        O  0.70233883  0.35861702  0.53482005    -0.82100
C952        C  0.70767581  0.34686426  0.55876164     0.98400
O953        O  0.69478448  0.32627195  0.56077924    -0.82100
O954        O  0.65646218  0.28552125  0.54773407    -0.84800
C955        C  0.64060505  0.28269289  0.57372810     1.02900
O956        O  0.63350860  0.29610231  0.57207102    -0.77600
O957        O  0.62900256  0.33190518  0.54387663    -0.77700
C958        C  0.64216405  0.34960687  0.56458260     1.02900
O959        O  0.65072896  0.35350658  0.96635789    -0.85100
O960        O  0.68837677  0.35271882  0.94069718    -0.82100
C961        C  0.70227791  0.34632084  0.93752203     0.98400
O962        O  0.70066781  0.33100419  0.96343318    -0.82200
O963        O  0.66119123  0.29166441  0.95008136    -0.84800
C964        C  0.64092776  0.27766538  0.95224062     1.02900
O965        O  0.62843655  0.28118562  0.97845049    -0.77600
O966        O  0.62835381  0.31883969  0.94919152    -0.77700
C967        C  0.63452614  0.33893839  0.94365231     1.02800
Cr968      Cr  0.67490668  0.35292847  0.50150425     1.93700
Cr969      Cr  0.67689151  0.30981285  0.50554883     1.93200
Cr970      Cr  0.63227586  0.30838547  0.51072569     1.39100
O971        O  0.66142897  0.32374042  0.50621288    -1.22800
N972        N  0.56177868  0.12496242  0.75241965    -0.36300
N973        N  0.57873531  0.16099062  0.68425007    -0.56900
N974        N  0.59619962  0.19237422  0.76058361    -0.36300
N975        N  0.58096583  0.15698159  0.82887219    -0.56900
C976        C  0.55868241  0.11348805  0.71192180     0.27300
C977        C  0.55834305  0.11111208  0.78873204     0.27300
C978        C  0.60542404  0.20591422  0.72361813     0.27300
C979        C  0.60708423  0.20387834  0.79905471     0.27300
C980        C  0.56839640  0.14397177  0.65416815     0.35900
C981        C  0.58528781  0.17955522  0.65912747     0.35900
C982        C  0.57084268  0.13849873  0.85513322     0.35900
C983        C  0.58925559  0.17431665  0.85891085     0.35900
C984        C  0.55270304  0.09192391  0.72273592    -0.21600
C985        C  0.55223655  0.09035816  0.77084606    -0.21600
C986        C  0.62215982  0.22620726  0.73888105    -0.21600
C987        C  0.62320762  0.22493118  0.78628595    -0.21600
C988        C  0.56843524  0.15180643  0.60957731    -0.22700
C989        C  0.57908018  0.17437868  0.61279946    -0.22700
C990        C  0.57344576  0.14426318  0.90226684    -0.22700
C991        C  0.58481506  0.16689446  0.90455831    -0.22700
C992        C  0.56052009  0.12160151  0.66536173    -0.18000
C993        C  0.56027432  0.11649604  0.83753512    -0.18000
C994        C  0.60190229  0.19671524  0.84581422    -0.18000
C995        C  0.59864787  0.20106829  0.67657018    -0.18000
H996        H  0.54887136  0.07857281  0.69846068     0.14900
H997        H  0.54799139  0.07552084  0.79021519     0.14900
H998        H  0.63250020  0.24066090  0.71821662     0.14900
H999        H  0.63446522  0.23828398  0.80864158     0.14900
H1000       H  0.56184390  0.14227297  0.57783844     0.13200
H1001       H  0.58250051  0.18568890  0.58410597     0.13200
H1002       H  0.56789512  0.13334611  0.93211884     0.13200
H1003       H  0.58971857  0.17674459  0.93620215     0.13200
H1004       H  0.56441068  0.14085511  0.75523621     0.26400
H1005       H  0.58164582  0.17739151  0.76024482     0.26400
N1006       N  0.53595045  0.05002894  0.98067323    -0.03200
C1007       C  0.53026382  0.02837100  0.97709211    -0.00600
C1008       C  0.53461597  0.02132458  0.51862178    -0.23500
C1009       C  0.54287881  0.03873952  0.54898359    -0.23700
C1010       C  0.54350127  0.05611865  0.52516786    -0.00700
H1011       H  0.53071389  0.00470088  0.52706883     0.13100
H1012       H  0.54699050  0.03850335  0.58537521     0.13100
C1013       C  0.56470772  0.08735000  0.87851474    -0.20000
C1014       C  0.55249892  0.09813259  0.87267388    -0.06600
C1015       C  0.53390402  0.09206006  0.90175633     0.14300
C1016       C  0.52866191  0.07615851  0.93709038    -0.20100
C1017       C  0.54073011  0.06521063  0.94234079    -0.06600
C1018       C  0.55881793  0.07073767  0.91221695     0.14300
C1019       C  0.57234814  0.05952475  0.91642636    -0.23400
H1020       H  0.57899165  0.09202925  0.85651403     0.15600
H1021       H  0.51503837  0.07214583  0.96064656     0.15600
C1022       C  0.51942871  0.10213275  0.89523891    -0.23400
H1023       H  0.58646431  0.06648871  0.89169816     0.05800
H1024       H  0.56203402  0.04174745  0.90825572     0.09000
H1025       H  0.57894283  0.06151262  0.95245680     0.09000
H1026       H  0.51286926  0.09897022  0.85900518     0.09000
H1027       H  0.52881560  0.12014421  0.90146643     0.09000
H1028       H  0.50526124  0.09502055  0.91983591     0.05800
C1029       C  0.57349087  0.10601048  0.60235510    -0.20000
C1030       C  0.55574943  0.10612630  0.62509369    -0.06600
C1031       C  0.53418764  0.09227065  0.60838833     0.14300
C1032       C  0.53077726  0.07774319  0.57093184    -0.20100
C1033       C  0.54843931  0.07666438  0.55013981    -0.06600
C1034       C  0.57006099  0.09130797  0.56542774     0.14300
C1035       C  0.58946586  0.09089739  0.54364078    -0.23400
H1036       H  0.59006126  0.11704996  0.61456993     0.15600
H1037       H  0.51414058  0.06609313  0.56003409     0.15600
C1038       C  0.51481865  0.09244274  0.63094779    -0.23400
H1039       H  0.60524745  0.10350993  0.55938671     0.05800
H1040       H  0.59000677  0.09431106  0.50561750     0.09000
H1041       H  0.58805218  0.07451974  0.54873158     0.09000
H1042       H  0.51684570  0.10919151  0.62853303     0.09000
H1043       H  0.51369268  0.08775936  0.66834142     0.09000
H1044       H  0.49910624  0.08067019  0.61363393     0.05800
C1045       C  0.60884488  0.24594131  0.91460575    -0.20000
C1046       C  0.63126778  0.25625159  0.92667555    -0.06600
C1047       C  0.64299161  0.24486030  0.91813902     0.14300
C1048       C  0.63221298  0.22400846  0.89640279    -0.20100
C1049       C  0.61023643  0.21451754  0.88185439    -0.06600
C1050       C  0.59832658  0.22543353  0.89185741     0.14300
C1051       C  0.57467900  0.21574443  0.87689441    -0.23400
H1052       H  0.59958617  0.25426538  0.92186459     0.15600
H1053       H  0.64136472  0.21571837  0.88772171     0.15600
C1054       C  0.66677885  0.25442540  0.93176802    -0.23400
H1055       H  0.56768024  0.22627604  0.88771956     0.05800
H1056       H  0.56463222  0.19928071  0.89307696     0.09000
H1057       H  0.57344333  0.21400908  0.83821634     0.09000
H1058       H  0.66869402  0.25791477  0.96993443     0.09000
H1059       H  0.67708980  0.26983077  0.91198183     0.09000
H1060       H  0.67299724  0.24292141  0.92383651     0.05800
C1061       C  0.59724839  0.23252616  0.64086388    -0.20000
C1062       C  0.60781351  0.22004706  0.64408151    -0.06600
C1063       C  0.62897232  0.22817830  0.62488915     0.14300
C1064       C  0.63943876  0.24901379  0.60417141    -0.20100
C1065       C  0.62919113  0.26196853  0.60132585    -0.06600
C1066       C  0.60749737  0.25329407  0.61930054     0.14300
C1067       C  0.59479663  0.26543431  0.61575142    -0.23400
H1068       H  0.58110844  0.22617831  0.65656389     0.15600
H1069       H  0.65582636  0.25515136  0.58999874     0.15600
C1070       C  0.64078227  0.21513596  0.62779017    -0.23400
H1071       H  0.57813832  0.25595497  0.63151682     0.05800
H1072       H  0.59261530  0.26825145  0.57842072     0.09000
H1073       H  0.60364560  0.28140492  0.63463548     0.09000
H1074       H  0.63092927  0.19902459  0.60989418     0.09000
H1075       H  0.64315915  0.21225207  0.66493855     0.09000
H1076       H  0.65723106  0.22386973  0.61086655     0.05800
C1077       C  0.60446223  0.37240963  0.60120652    -0.20000
C1078       C  0.61650764  0.38676018  0.63739696    -0.06600
C1079       C  0.63789954  0.39042391  0.64716457     0.14300
C1080       C  0.64592706  0.37824773  0.62303840    -0.20100
C1081       C  0.63322579  0.36259504  0.58879184    -0.06600
C1082       C  0.61253942  0.36053052  0.57638711     0.14300
C1083       C  0.59881338  0.34630168  0.53640531    -0.23400
H1084       H  0.58811164  0.36968814  0.59388274     0.15600
H1085       H  0.66207113  0.38075998  0.63174769     0.15600
C1086       C  0.65243837  0.40681918  0.68357131    -0.23400
H1087       H  0.58412151  0.34805717  0.52999450     0.05800
H1088       H  0.59277728  0.32866872  0.54394532     0.09000
H1089       H  0.60881749  0.35138612  0.50399972     0.09000
H1090       H  0.65594349  0.39815141  0.71180286     0.09000
H1091       H  0.64491489  0.41600595  0.69953983     0.09000
H1092       H  0.66819535  0.41905850  0.66710564     0.05800
C1093       C  0.59025218  0.34710238  0.88496679    -0.20000
C1094       C  0.60357321  0.36759844  0.86402203    -0.06600
C1095       C  0.62663917  0.37731324  0.86575032     0.14300
C1096       C  0.63593554  0.36662525  0.88973781    -0.20100
C1097       C  0.62282943  0.34645314  0.91244155    -0.06600
C1098       C  0.59950937  0.33637710  0.90972876     0.14300
C1099       C  0.58365016  0.31515880  0.93387936    -0.23400
H1100       H  0.57251556  0.33959386  0.88245199     0.15600
H1101       H  0.65371450  0.37436927  0.89162545     0.15600
C1102       C  0.64149690  0.39906553  0.84234360    -0.23400
H1103       H  0.57219318  0.31792283  0.95610403     0.05800
H1104       H  0.59148709  0.30849483  0.95700594     0.09000
H1105       H  0.57385767  0.30247853  0.90717587     0.09000
H1106       H  0.63831589  0.41196853  0.85689247     0.09000
H1107       H  0.63841752  0.39761845  0.80406659     0.09000
H1108       H  0.65915810  0.40446734  0.84784130     0.05800
C1109       C  0.75231446  0.39093135  0.87319848    -0.20000
C1110       C  0.76303336  0.37927943  0.86040624    -0.06600
C1111       C  0.75323730  0.35665157  0.87111703     0.14300
C1112       C  0.73294069  0.34625487  0.89427464    -0.20100
C1113       C  0.72193745  0.35774034  0.90687762    -0.06600
C1114       C  0.73173274  0.38043854  0.89562254     0.14300
C1115       C  0.72093260  0.39390254  0.90736870    -0.23400
H1116       H  0.75982940  0.40820440  0.86404522     0.15600
H1117       H  0.72572887  0.32894205  0.90289390     0.15600
C1118       C  0.76365626  0.34291369  0.85854232    -0.23400
H1119       H  0.73118237  0.41133975  0.89636946     0.05800
H1120       H  0.71829910  0.39383144  0.94569046     0.09000
H1121       H  0.70492665  0.38705183  0.88890678     0.09000
H1122       H  0.77968829  0.35237821  0.84044304     0.09000
H1123       H  0.75246620  0.32919234  0.83514843     0.09000
H1124       H  0.76642820  0.33590299  0.89090876     0.05800
C1125       C  0.73526158  0.34388444  0.60911199    -0.20000
C1126       C  0.72989235  0.35719161  0.58159051    -0.06600
C1127       C  0.74647527  0.37959699  0.57416524     0.14300
C1128       C  0.76685306  0.38815478  0.59707920    -0.20100
C1129       C  0.77140539  0.37512649  0.62680371    -0.06600
C1130       C  0.75573245  0.35255508  0.63162663     0.14300
C1131       C  0.76044393  0.33777910  0.66184893    -0.23400
H1132       H  0.72323924  0.32664801  0.61393905     0.15600
H1133       H  0.77888164  0.40551450  0.59408492     0.15600
C1134       C  0.74320188  0.39493858  0.54255053    -0.23400
H1135       H  0.74672956  0.32047033  0.66100940     0.05800
H1136       H  0.76288501  0.34350603  0.69875667     0.09000
H1137       H  0.77555871  0.33802191  0.64908329     0.09000
H1138       H  0.72949181  0.39716000  0.55570082     0.09000
H1139       H  0.73978723  0.38819489  0.50641965     0.09000
H1140       H  0.75806742  0.41154284  0.54085983     0.05800
C1141       C  0.57774426  0.47537496  0.64659052    -0.20000
C1142       C  0.56546805  0.45235904  0.65046878    -0.06600
C1143       C  0.54778667  0.44047544  0.61893844     0.14300
C1144       C  0.54352144  0.45175280  0.58332493    -0.20100
C1145       C  0.55601327  0.47471851  0.57904735    -0.06600
C1146       C  0.57324764  0.48664921  0.61141706     0.14300
C1147       C  0.58756072  0.51125711  0.60764073    -0.23400
H1148       H  0.59134943  0.48449533  0.67041036     0.15600
H1149       H  0.53048931  0.44252496  0.55837794     0.15600
C1150       C  0.53315158  0.41586883  0.62177955    -0.23400
H1151       H  0.60080540  0.51791116  0.63437862     0.05800
H1152       H  0.57749082  0.51929247  0.61304315     0.09000
H1153       H  0.59559222  0.51562490  0.07198250     0.09000
H1154       H  0.51580937  0.41189957  0.62636934     0.09000
H1155       H  0.53730565  0.40846308  0.65147154     0.09000
H1156       H  0.53453331  0.40813761  0.58887292     0.05800
C1157       C  0.58910402  0.46475805  0.91579283    -0.20000
C1158       C  0.57039313  0.44641797  0.89724578    -0.06600
C1159       C  0.54968699  0.43954268  0.91846359     0.14300
C1160       C  0.54802713  0.45209267  0.95529548    -0.20100
C1161       C  0.56653581  0.47128145  0.97171481    -0.06600
C1162       C  0.58740910  0.47726758  0.95261090     0.14300
C1163       C  0.60785492  0.49720668  0.97044568    -0.23400
H1164       H  0.60505707  0.46962894  0.90048553     0.15600
H1165       H  0.53190869  0.44770780  0.96900884     0.15600
C1166       C  0.52895030  0.41950847  0.90211649    -0.23400
H1167       H  0.62301194  0.49977385  0.45225814     0.05800
H1168       H  0.60981058  0.49584162  0.50831941     0.09000
H1169       H  0.60687019  0.51268967  0.46426276     0.09000
H1170       H  0.53187104  0.41062531  0.87325220     0.09000
H1171       H  0.51709032  0.42452764  0.88963318     0.09000
H1172       H  0.52144797  0.40787113  0.93172286     0.05800
C1173       C  0.89211880  0.45317376  0.61276636    -0.20000
C1174       C  0.88760313  0.43440499  0.63894035    -0.06600
C1175       C  0.90023084  0.42405435  0.63037674     0.14300
C1176       C  0.91654092  0.43228787  0.59517891    -0.20100
C1177       C  0.92064419  0.45068133  0.56809844    -0.06600
C1178       C  0.90859934  0.46154608  0.57792236     0.14300
C1179       C  0.91305043  0.48220355  0.55287888    -0.23400
H1180       H  0.88265260  0.46132849  0.61949870     0.15600
H1181       H  0.92573763  0.42393722  0.58761487     0.15600
C1182       C  0.89605736  0.40395607  0.65755938    -0.23400
H1183       H  0.91733030  0.49559812  0.57881529     0.05800
H1184       H  0.89811778  0.47926576  0.53347916     0.09000
H1185       H  0.92697435  0.48791819  0.52797485     0.09000
H1186       H  0.87880052  0.39064324  0.65224262     0.09000
H1187       H  0.89887103  0.40803251  0.69539679     0.09000
H1188       H  0.90714162  0.39769024  0.64624987     0.05800
C1189       C  0.88118882  0.41634845  0.90626991    -0.20000
C1190       C  0.87777808  0.43256703  0.88561854    -0.06600
C1191       C  0.88844925  0.45408339  0.90479177     0.14300
C1192       C  0.90358834  0.45918575  0.94152689    -0.20100
C1193       C  0.90781759  0.44318066  0.96072874    -0.06600
C1194       C  0.89587248  0.42133546  0.94367765     0.14300
C1195       C  0.89922485  0.40316585  0.96270259    -0.23400
H1196       H  0.87257025  0.39968809  0.89249523     0.15600
H1197       H  0.91334481  0.47618066  0.95262515     0.15600
C1198       C  0.88480113  0.47216223  0.88633634    -0.23400
H1199       H  0.88320048  0.38936397  0.97468214     0.05800
H1200       H  0.91063546  0.40858814  0.99295718     0.09000
H1201       H  0.90595544  0.39708826  0.93476825     0.09000
H1202       H  0.87872654  0.47849857  0.91507467     0.09000
H1203       H  0.87259392  0.46656756  0.85758876     0.09000
H1204       H  0.90058075  0.48584562  0.87296296     0.05800
C1205       C  0.01408054  0.49445901  0.56919761    -0.20000
C1206       C  0.01588645  0.51516684  0.56296429    -0.06600
C1207       C  0.99694918  0.51706386  0.57172246     0.14300
C1208       C  0.97605606  0.49793072  0.57237050    -0.20100
C1209       C  0.97406660  0.47716831  0.56530768    -0.06600
C1210       C  0.99320314  0.47534476  0.57126141     0.14300
C1211       C  0.99156160  0.45307684  0.57434977    -0.23400
H1212       H  0.02853605  0.49275841  0.56499827     0.15600
H1213       H  0.96148664  0.49956154  0.57090959     0.15600
C1214       C  0.99867476  0.53936870  0.57512895    -0.23400
H1215       H  0.00800483  0.45457844  0.57884798     0.05800
H1216       H  0.98398546  0.44318438  0.04094002     0.09000
H1217       H  0.98127092  0.44409445  0.60500408     0.09000
H1218       H  0.00546619  0.54883344  0.04299582     0.09000
H1219       H  0.00972174  0.54872058  0.60459182     0.09000
H1220       H  0.98237549  0.53794461  0.58174263     0.05800
C1221       C  0.10322979  0.54333692  0.90199351    -0.20000
C1222       C  0.11221018  0.56415989  0.88125229    -0.06600
C1223       C  0.10655270  0.57953414  0.89909554     0.14300
C1224       C  0.09133739  0.57339983  0.93609915    -0.20100
C1225       C  0.08138961  0.55213997  0.95547036    -0.06600
C1226       C  0.08767035  0.53701887  0.93836146     0.14300
C1227       C  0.07705747  0.51375474  0.95619595    -0.23400
H1228       H  0.10783326  0.53169578  0.88837213     0.15600
H1229       H  0.08593350  0.58472899  0.94766294     0.15600
C1230       C  0.11594729  0.60209271  0.87783007    -0.23400
H1231       H  0.08275600  0.50375351  0.93659945     0.05800
H1232       H  0.05889943  0.50559263  0.95264728     0.09000
H1233       H  0.08153063  0.51393775  0.99327879     0.09000
H1234       H  0.11140538  0.60056632  0.84025649     0.09000
H1235       H  0.13414606  0.61102726  0.88100923     0.09000
H1236       H  0.10964841  0.61204089  0.89550771     0.05800
C1237       C  0.07579687  0.52887123  0.58015628    -0.20000
C1238       C  0.06896780  0.54335160  0.56353983    -0.06600
C1239       C  0.07768758  0.56439942  0.58449763     0.14300
C1240       C  0.09381578  0.57092060  0.61974307    -0.20100
C1241       C  0.10151661  0.55685709  0.63463004    -0.06600
C1242       C  0.09213737  0.53546451  0.61498600     0.14300
C1243       C  0.09959372  0.51969420  0.63054212    -0.23400
H1244       H  0.06850410  0.51244905  0.56557661     0.15600
H1245       H  0.10079930  0.58722235  0.63507795     0.15600
C1246       C  0.06990345  0.57996625  0.56940775    -0.23400
H1247       H  0.09066676  0.50366258  0.61186079     0.05800
H1248       H  0.09655798  0.51655952  0.66863884     0.09000
H1249       H  0.11744772  0.52684373  0.62341572     0.09000
H1250       H  0.05189749  0.57225083  0.57524442     0.09000
H1251       H  0.07351960  0.58389497  0.53174015     0.09000
H1252       H  0.07812175  0.59566185  0.58944582     0.05800
C1253       C  0.36243221  0.60393969  0.85402837    -0.20000
C1254       C  0.38543478  0.61438332  0.85509767    -0.06600
C1255       C  0.39750045  0.63458490  0.87924895     0.14300
C1256       C  0.38609193  0.64352683  0.90286666    -0.20100
C1257       C  0.36297756  0.63273395  0.90282049    -0.06600
C1258       C  0.35101639  0.61280168  0.87747905     0.14300
C1259       C  0.32624421  0.60100995  0.87391029    -0.23400
H1260       H  0.35337693  0.58880037  0.83414496     0.15600
H1261       H  0.39530936  0.65866094  0.92267844     0.15600
C1262       C  0.42227365  0.64711094  0.88047231    -0.23400
H1263       H  0.31996215  0.58692841  0.84904423     0.05800
H1264       H  0.32085487  0.61256199  0.86122559     0.09000
H1265       H  0.31861169  0.59425507  0.90838850     0.09000
H1266       H  0.42839211  0.66368142  0.86498144     0.09000
H1267       H  0.42973232  0.63876103  0.86077711     0.09000
H1268       H  0.42794513  0.64905437  0.91732076     0.05800
C1269       C  0.37981466  0.62617315  0.57094152    -0.20000
C1270       C  0.35725642  0.61868943  0.57898298    -0.06600
C1271       C  0.34512621  0.59934171  0.60601060     0.14300
C1272       C  0.35623061  0.58947111  0.62725226    -0.20100
C1273       C  0.37903074  0.59809449  0.62172219    -0.06600
C1274       C  0.39076436  0.61621850  0.59174972     0.14300
C1275       C  0.41513601  0.62634817  0.58308887    -0.23400
H1276       H  0.38939521  0.64039189  0.54893327     0.15600
H1277       H  0.34732728  0.57568667  0.65076023     0.15600
C1278       C  0.32070579  0.58917971  0.61368592    -0.23400
H1279       H  0.42370506  0.64374778  0.59518133     0.05800
H1280       H  0.41813846  0.62592764  0.54500817     0.09000
H1281       H  0.42254190  0.61768760  0.60135484     0.09000
H1282       H  0.31201741  0.58418544  0.57956253     0.09000
H1283       H  0.31706048  0.60114406  0.63151568     0.09000
H1284       H  0.31408899  0.57422317  0.63587791     0.05800
C1285       C  0.23842647  0.62696275  0.85624051    -0.20000
C1286       C  0.22562999  0.60392354  0.85571013    -0.06600
C1287       C  0.23327970  0.59131548  0.87918513     0.14300
C1288       C  0.25336074  0.60212138  0.90361526    -0.20100
C1289       C  0.26594726  0.62526703  0.90523576    -0.06600
C1290       C  0.25845977  0.63781451  0.88062442     0.14300
C1291       C  0.27184636  0.66259701  0.87845873    -0.23400
H1292       H  0.23275129  0.63649529  0.83692030     0.15600
H1293       H  0.25896596  0.59244679  0.92260762     0.15600
C1294       C  0.22028175  0.56653351  0.87827442    -0.23400
H1295       H  0.26426278  0.66953411  0.85485193     0.05800
H1296       H  0.28859012  0.66767799  0.86498104     0.09000
H1297       H  0.27307172  0.66984675  0.91366529     0.09000
H1298       H  0.21835404  0.56051158  0.84163687     0.09000
H1299       H  0.20376137  0.56079111  0.89378188     0.09000
H1300       H  0.22854508  0.55917344  0.89847335     0.05800
C1301       C  0.24453945  0.60332726  0.57263861    -0.20000
C1302       C  0.26001659  0.62557131  0.58237935    -0.06600
C1303       C  0.25318978  0.63787850  0.61064974     0.14300
C1304       C  0.23196719  0.62732802  0.63020397    -0.20100
C1305       C  0.21729406  0.60484396  0.62284966    -0.06600
C1306       C  0.22340353  0.59285797  0.59249421     0.14300
C1307       C  0.20838080  0.56880356  0.58192829    -0.23400
H1308       H  0.24897442  0.59372370  0.54981389     0.15600
H1309       H  0.22721364  0.63633069  0.65411137     0.15600
C1310       C  0.26814541  0.66183491  0.62221128    -0.23400
H1311       H  0.21615487  0.55918202  0.59385149     0.05800
H1312       H  0.20557138  0.56651324  0.54358541     0.09000
H1313       H  0.19212198  0.56205621  0.59923192     0.09000
H1314       H  0.27288572  0.67182797  0.58976202     0.09000
H1315       H  0.28294442  0.66377469  0.64045960     0.09000
H1316       H  0.26009972  0.66842744  0.64573582     0.05800
C1317       C  0.35794298  0.74335684  0.65556734    -0.20000
C1318       C  0.38076160  0.75727658  0.65320005    -0.06600
C1319       C  0.39373431  0.75044038  0.62812752     0.14300
C1320       C  0.38336654  0.73002567  0.60454567    -0.20100
C1321       C  0.36032499  0.71648683  0.60523311    -0.06600
C1322       C  0.34756813  0.72309497  0.63205772     0.14300
C1323       C  0.32308468  0.70848784  0.63759896    -0.23400
H1324       H  0.34821298  0.74837049  0.67646353     0.15600
H1325       H  0.39320792  0.72501781  0.58406798     0.15600
C1326       C  0.41839118  0.76461451  0.62655225    -0.23400
H1327       H  0.31607498  0.71543993  0.66296041     0.05800
H1328       H  0.31962495  0.69218839  0.65085506     0.09000
H1329       H  0.31459698  0.70647645  0.60374989     0.09000
H1330       H  0.42513511  0.76741577  0.66261233     0.09000
H1331       H  0.42296449  0.78072594  0.61035794     0.09000
H1332       H  0.42608731  0.75677629  0.60571162     0.05800
C1333       C  0.38437953  0.76424899  0.91616266    -0.20000
C1334       C  0.37066177  0.76675947  0.88449057    -0.06600
C1335       C  0.34881711  0.74953643  0.87843299     0.14300
C1336       C  0.34179956  0.72940217  0.90111459    -0.20100
C1337       C  0.35614239  0.72597191  0.92966415    -0.06600
C1338       C  0.37755035  0.74412740  0.93881307     0.14300
C1339       C  0.39367826  0.74273918  0.97150020    -0.23400
H1340       H  0.40115710  0.77759927  0.92024269     0.15600
H1341       H  0.32518569  0.71606565  0.89518181     0.15600
C1342       C  0.33321630  0.75217820  0.84646177    -0.23400
H1343       H  0.40918156  0.75875503  0.97487905     0.05800
H1344       H  0.39815494  0.73055276  0.95815256     0.09000
H1345       H  0.38635057  0.73807001  0.00693137     0.09000
H1346       H  0.33954533  0.75512273  0.81002081     0.09000
H1347       H  0.33147662  0.76636901  0.85838707     0.09000
H1348       H  0.31662138  0.73726991  0.84633210     0.05800
C1349       C  0.44508897  0.53700545  0.94841049    -0.20000
C1350       C  0.46748990  0.55189192  0.95639078    -0.06600
C1351       C  0.47813798  0.57126658  0.92883539     0.14300
C1352       C  0.46648660  0.57476131  0.89320568    -0.20100
C1353       C  0.44469506  0.55908182  0.88286710    -0.06600
C1354       C  0.43363314  0.54021906  0.91154198     0.14300
C1355       C  0.41015078  0.52296516  0.90173353    -0.23400
H1356       H  0.43710074  0.52182593  0.96826770     0.15600
H1357       H  0.47469795  0.58944416  0.87181624     0.15600
C1358       C  0.50215318  0.58796386  0.93520023    -0.23400
H1359       H  0.40417764  0.50900021  0.92663412     0.05800
H1360       H  0.40885501  0.51638717  0.86574033     0.09000
H1361       H  0.39923098  0.53017567  0.90491622     0.09000
H1362       H  0.51252391  0.58019628  0.93084153     0.09000
H1363       H  0.50481368  0.59553869  0.97028718     0.09000
H1364       H  0.50787882  0.60150813  0.90928221     0.05800
C1365       C  0.46722645  0.56802515  0.61671831    -0.20000
C1366       C  0.44753886  0.55109390  0.63538365    -0.06600
C1367       C  0.43964848  0.52932000  0.61903174     0.14300
C1368       C  0.45125590  0.52515339  0.58348139    -0.20100
C1369       C  0.47064709  0.54226039  0.56385901    -0.06600
C1370       C  0.47885369  0.56390791  0.58151061     0.14300
C1371       C  0.49993749  0.58308913  0.56433862    -0.23400
H1372       H  0.47347430  0.58471784  0.62941373     0.15600
H1373       H  0.44495373  0.50857519  0.57013565     0.15600
C1374       C  0.41885956  0.51059467  0.63882187    -0.23400
H1375       H  0.51165060  0.59033642  0.59393179     0.05800
H1376       H  0.49656719  0.59586157  0.55014623     0.09000
H1377       H  0.50790425  0.57831791  0.53677998     0.09000
H1378       H  0.40487599  0.51352146  0.63266512     0.09000
H1379       H  0.42080821  0.50935332  0.67704704     0.09000
H1380       H  0.41487285  0.49462007  0.62237189     0.05800
C1381       C  0.49315602  0.49592272  0.56202065    -0.20000
C1382       C  0.50045315  0.51864550  0.56431113    -0.06600
C1383       C  0.52167903  0.53250974  0.58277168     0.14300
C1384       C  0.53653310  0.52452537  0.58709474    -0.20100
C1385       C  0.53084388  0.50327496  0.57131499    -0.06600
C1386       C  0.50827715  0.48812802  0.56407625     0.14300
C1387       C  0.50080428  0.46481423  0.05271455    -0.23400
H1388       H  0.47694108  0.48546798  0.05007808     0.15600
H1389       H  0.55368597  0.53613551  0.59420946     0.15600
C1390       C  0.52984277  0.55659295  0.59064022    -0.23400
H1391       H  0.48271191  0.45533026  0.04745685     0.05800
H1392       H  0.50463511  0.45674347  0.58198202     0.09000
H1393       H  0.50875894  0.46347530  0.02015790     0.09000
H1394       H  0.51855160  0.55857549  0.61496161     0.09000
H1395       H  0.53069778  0.56465570  0.55679705     0.09000
H1396       H  0.54656550  0.56505709  0.60625594     0.05800
C1397       C  0.46109872  0.90034857  0.93103922    -0.20000
C1398       C  0.45232380  0.91379016  0.94399285    -0.06600
C1399       C  0.43304436  0.91068770  0.92144087     0.14300
C1400       C  0.42336895  0.89470705  0.88567048    -0.20100
C1401       C  0.43229647  0.88138991  0.87252509    -0.06600
C1402       C  0.45132588  0.88419812  0.89581360     0.14300
C1403       C  0.46115132  0.86989896  0.88386882    -0.23400
H1404       H  0.47561542  0.90244097  0.94883692     0.15600
H1405       H  0.40849756  0.89221323  0.86863989     0.15600
C1406       C  0.42224089  0.92367361  0.93642476    -0.23400
H1407       H  0.47610221  0.87435643  0.90491993     0.05800
H1408       H  0.46580394  0.87181561  0.84629149     0.09000
H1409       H  0.44899258  0.85237497  0.89093834     0.09000
H1410       H  0.43349778  0.94139978  0.92990179     0.09000
H1411       H  0.41818407  0.92108605  0.97427874     0.09000
H1412       H  0.40678775  0.91863533  0.91679771     0.05800
C1413       C  0.42689497  0.89452247  0.56458635    -0.20000
C1414       C  0.44894927  0.90259144  0.55168327    -0.06600
C1415       C  0.46119527  0.89418209  0.57420776     0.14300
C1416       C  0.45135866  0.87847953  0.60982669    -0.20100
C1417       C  0.42985953  0.87160824  0.62487541    -0.06600
C1418       C  0.41724929  0.87922961  0.60122457     0.14300
C1419       C  0.39396283  0.87189060  0.61597086    -0.23400
H1420       H  0.41776427  0.90153833  0.54858757     0.15600
H1421       H  0.46081064  0.87227822  0.62764913     0.15600
C1422       C  0.48510087  0.90271899  0.56264747    -0.23400
H1423       H  0.38652220  0.87966132  0.59439042     0.05800
H1424       H  0.39369506  0.87647735  0.65312261     0.09000
H1425       H  0.38371492  0.85375138  0.61209908     0.09000
H1426       H  0.49489663  0.92061046  0.57036475     0.09000
H1427       H  0.48685953  0.89987309  0.52510986     0.09000
H1428       H  0.49212786  0.89429928  0.58340200     0.05800
C1429       C  0.52121237  0.99616036  0.42802119    -0.20000
C1430       C  0.51541727  0.01179727  0.94217740    -0.06600
C1431       C  0.49280360  0.00532374  0.94241536     0.14300
C1432       C  0.47702051  0.98276007  0.93885485    -0.20100
C1433       C  0.48353962  0.96669565  0.93983944    -0.06600
C1434       C  0.50542312  0.97359669  0.42715849     0.14300
C1435       C  0.51324591  0.95726613  0.42090901    -0.23400
H1436       H  0.53848053  0.00092372  0.42605843     0.15600
H1437       H  0.46001603  0.97775399  0.94647003     0.15600
C1438       C  0.48523312  0.02160550  0.95299638    -0.23400
H1439       H  0.52172274  0.96001856  0.38663351     0.05800
H1440       H  0.49938641  0.94013883  0.42146218     0.09000
H1441       H  0.52490162  0.95933048  0.44933247     0.09000
H1442       H  0.49147751  0.03446670  0.92556018     0.09000
H1443       H  0.49129193  0.02930221  0.98783584     0.09000
H1444       H  0.46700434  0.01364100  0.95334105     0.05800
loop_ 
_geom_bond_atom_site_label_1 
_geom_bond_atom_site_label_2 
_geom_bond_distance 
_geom_bond_site_symmetry_2 
_ccdc_geom_bond_type 
N1            C2   1.367       .  A
N1          C727   1.365       .  A
N1          C676   1.449       .  S
C2          C711   1.486       .  S
C2          C725   1.383       .  A
C3            C4   1.362       .  A
C3          C724   1.383   1_554  A
C3            H6   1.082       .  S
C4            C5   1.378       .  A
C4            H7   1.082       .  S
C5          N723   1.365   1_554  A
C5          C692   1.479       .  S
N8            C9   1.369       .  A
N8          C734   1.369   1_554  A
N8          C647   1.452       .  S
C9          C660   1.488       .  S
C9          C732   1.382   1_554  A
C10          C11   1.362       .  A
C10         C731   1.382       .  A
C10          H13   1.083       .  S
C11          C12   1.379       .  A
C11          H14   1.083       .  S
C12         N730   1.369       .  A
C12         C628   1.485       .  S
N15          C20   1.361       .  A
N15          C19   1.357       .  A
N15          H47   1.037       .  S
N16          C23   1.349       .  A
N16          C24   1.353       .  A
N17          C22   1.347       .  A
N17          C21   1.351       .  A
N17          H48   1.040       .  S
N18          C25   1.349       .  A
N18          C26   1.351       .  A
C19          C27   1.388       .  A
C19          C35   1.428       .  A
C20          C36   1.429       .  A
C20          C28   1.387       .  A
C21          C29   1.385       .  A
C21          C38   1.406       .  A
C22          C37   1.410       .  A
C22          C30   1.389       .  A
C23          C35   1.415       .  A
C23          C31   1.389       .  A
C24          C38   1.410       .  A
C24          C32   1.383       .  A
C25          C33   1.388       .  A
C25          C36   1.416       .  A
C26          C34   1.384       .  A
C26          C37   1.411       .  A
C27          C28   1.382       .  A
C27          H39   1.082       .  S
C28          H40   1.082       .  S
C29          C30   1.369       .  A
C29          H41   1.083       .  S
C30          H42   1.082       .  S
C31          C32   1.375       .  A
C31          H43   1.082       .  S
C32          H44   1.082       .  S
C33          C34   1.378       .  A
C33          H45   1.082       .  S
C34          H46   1.082       .  S
C35         C695   1.493       .  S
C36         C679   1.503       .  S
C37         C612   1.481       .  S
C38         C596   1.487       .  S
O49         Cr67   1.996   1_554  S
O49          C57   1.266       .  A
O50         Cr67   2.005   1_554  S
O50          C51   1.265       .  A
C51         C580   1.500       .  S
C51          O52   1.260       .  A
O52         Cr68   1.977       .  S
O53         Cr68   2.002       .  S
O53          C54   1.266       .  A
C54         C599   1.482       .  S
C54          O55   1.264       .  A
O55         Cr69   1.985       .  S
O56         Cr69   1.994       .  S
O56          C57   1.263       .  A
C57         C548   1.501       .  S
O58        Cr789   1.990       .  S
O58          C66   1.262       .  A
O59        Cr789   1.984       .  S
O59          C60   1.262       .  A
C60         C567   1.486       .  S
C60          O61   1.264       .  A
O61        Cr790   2.004       .  S
O62        Cr790   1.978       .  S
O62          C63   1.260       .  A
C63         C615   1.491       .  S
C63          O64   1.259       .  A
O64        Cr791   1.995       .  S
O65        Cr791   1.985       .  S
O65          C66   1.265       .  A
C66         C535   1.476       .  S
Cr67        O780   1.990       .  S
Cr67        O781   1.984       .  S
Cr67         O70   1.782   1_556  S
Cr68        O783   2.004   1_554  S
Cr68        O784   1.977   1_554  S
Cr68         O70   1.778       .  S
Cr69        O786   1.996   1_554  S
Cr69        O787   1.985   1_554  S
Cr69         O70   1.785       .  S
N71          C76   1.360       .  A
N71          C75   1.361       .  A
N71         H103   1.036       .  S
N72          C79   1.352       .  A
N72          C80   1.355       .  A
N73          C78   1.351       .  A
N73          C77   1.349       .  A
N73         H104   1.039       .  S
N74          C81   1.349       .  A
N74          C82   1.352       .  A
C75          C83   1.387       .  A
C75          C91   1.430       .  A
C76          C92   1.432       .  A
C76          C84   1.388       .  A
C77          C85   1.389       .  A
C77          C94   1.410       .  A
C78          C93   1.406       .  A
C78          C86   1.386       .  A
C79          C91   1.423       .  A
C79          C87   1.389       .  A
C80          C94   1.418       .  A
C80          C88   1.384       .  A
C81          C89   1.390       .  A
C81          C92   1.416       .  A
C82          C90   1.383       .  A
C82          C93   1.409       .  A
C83          C84   1.380       .  A
C83          H95   1.082       .  S
C84          H96   1.082       .  S
C85          C86   1.368       .  A
C85          H97   1.082       .  S
C86          H98   1.083       .  S
C87          C88   1.380       .  A
C87          H99   1.082       .  S
C88         H100   1.082       .  S
C89          C90   1.373       .  A
C89         H101   1.082       .  S
C90         H102   1.082       .  S
C91         C644   1.507       .  S
C92         C631   1.497       .  S
C93         C532   1.484       .  S
C94         C551   1.492       .  S
N105        C110   1.360       .  A
N105        C109   1.357       .  A
N105        H137   1.035       .  S
N106        C113   1.351       .  A
N106        C114   1.355       .  A
N107        C112   1.349       .  A
N107        C111   1.353       .  A
N107        H138   1.037       .  S
N108        C115   1.353       .  A
N108        C116   1.354       .  A
C109        C117   1.388       .  A
C109        C125   1.429       .  A
C110        C126   1.429       .  A
C110        C118   1.387       .  A
C111        C119   1.386       .  A
C111        C128   1.410       .  A
C112        C127   1.412       .  A
C112        C120   1.389       .  A
C113        C125   1.419       .  A
C113        C121   1.389       .  A
C114        C128   1.415       .  A
C114        C122   1.384       .  A
C115        C123   1.388       .  A
C115        C126   1.422       .  A
C116        C124   1.384       .  A
C116        C127   1.417       .  A
C117        C118   1.381       .  A
C117        H129   1.082       .  S
C118        H130   1.082       .  S
C119        C120   1.370       .  A
C119        H131   1.082       .  S
C120        H132   1.082       .  S
C121        C122   1.375       .  A
C121        H133   1.082       .  S
C122        H134   1.082       .  S
C123        C124   1.379       .  A
C123        H135   1.082       .  S
C124        H136   1.082       .  S
C125        C500   1.494       .  S
C126        C519   1.505       .  S
C127        C583   1.488       .  S
C128        C564   1.493       .  S
N139        C140   1.367       .  A
N139        C865   1.367   1_554  A
N139        C516   1.449       .  S
C140        C484   1.490       .  S
C140        C863   1.385   1_554  A
C141        C142   1.364       .  A
C141        C862   1.385       .  A
C141        H144   1.083       .  S
C142        C143   1.377       .  A
C142        H145   1.083       .  S
C143        N861   1.367       .  A
C143        C503   1.485       .  S
N146        C147   1.369       .  A
N146        C872   1.366   1_554  A
N146        C455   1.450       .  S
C147        C487   1.491       .  S
C147        C870   1.386   1_554  A
C148        C149   1.362       .  A
C148        C869   1.386       .  A
C148        H151   1.083       .  S
C149        C150   1.376       .  A
C149        H152   1.083       .  S
C150        N868   1.366       .  A
C150        C471   1.482       .  S
N153        C154   1.367       .  A
N153        C879   1.365   1_554  A
N153        C423   1.450       .  S
C154        C663   1.492       .  S
C154        C877   1.384   1_554  A
C155        C156   1.365       .  A
C155        C876   1.383       .  A
C155        H158   1.083       .  S
C156        C157   1.379       .  A
C156        H159   1.083       .  S
C157        N875   1.365       .  A
C157        C439   1.485       .  S
N160        C165   1.359       .  A
N160        C164   1.361       .  A
N160        H192   1.035       .  S
N161        C168   1.352       .  A
N161        C169   1.355       .  A
N162        C167   1.352       .  A
N162        C166   1.349       .  A
N162        H193   1.038       .  S
N163        C170   1.350       .  A
N163        C171   1.353       .  A
C164        C172   1.387       .  A
C164        C180   1.430       .  A
C165        C181   1.430       .  A
C165        C173   1.388       .  A
C166        C174   1.388       .  A
C166        C183   1.410       .  A
C167        C182   1.407       .  A
C167        C175   1.386       .  A
C168        C180   1.423       .  A
C168        C176   1.389       .  A
C169        C183   1.416       .  A
C169        C177   1.384       .  A
C170        C178   1.390       .  A
C170        C181   1.417       .  A
C171        C179   1.383       .  A
C171        C182   1.410       .  A
C172        C173   1.381       .  A
C172        H184   1.082       .  S
C173        H185   1.082       .  S
C174        C175   1.366       .  A
C174        H186   1.082       .  S
C175        H187   1.081       .  S
C176        C177   1.380       .  A
C176        H188   1.082       .  S
C177        H189   1.082       .  S
C178        C179   1.373       .  A
C178        H190   1.082       .  S
C179        H191   1.082       .  S
C180        C452   1.506       .  S
C181        C468   1.496       .  S
C182        C388   1.486       .  S
C183        C407   1.490       .  S
N194        C199   1.349       .  A
N194        C198   1.348       .  A
N194        H226   1.038       .  S
N195        C202   1.356       .  A
N195        C203   1.351       .  A
N196        C201   1.359       .  A
N196        C200   1.360       .  A
N196        H227   1.034       .  S
N197        C204   1.352       .  A
N197        C205   1.351       .  A
C198        C206   1.387       .  A
C198        C214   1.407       .  A
C199        C215   1.405       .  A
C199        C207   1.387       .  A
C200        C208   1.388       .  A
C200        C217   1.431       .  A
C201        C216   1.429       .  A
C201        C209   1.387       .  A
C202        C214   1.416       .  A
C202        C210   1.383       .  A
C203        C217   1.423       .  A
C203        C211   1.389       .  A
C204        C212   1.384       .  A
C204        C215   1.412       .  A
C205        C213   1.389       .  A
C205        C216   1.417       .  A
C206        C207   1.370       .  A
C206        H218   1.082       .  S
C207        H219   1.082       .  S
C208        C209   1.382       .  A
C208        H220   1.082       .  S
C209        H221   1.082       .  S
C210        C211   1.380       .  A
C210        H222   1.082       .  S
C211        H223   1.082       .  S
C212        C213   1.375       .  A
C212        H224   1.083       .  S
C213        H225   1.082       .  S
C214        C356   1.492       .  S
C215        C372   1.480       .  S
C216        C436   1.499       .  S
C217        C420   1.505       .  S
O228       Cr246   1.995       .  S
O228        C236   1.266       .  A
O229       Cr246   2.002       .  S
O229        C230   1.263       .  A
C230        C404   1.502       .  S
C230        O231   1.266       .  A
O231       Cr247   1.988       .  S
O232       Cr247   1.994       .  S
O232        C233   1.265       .  A
C233        C343   1.488       .  S
C233        O234   1.262       .  A
O234       Cr248   1.976       .  S
O235       Cr248   2.004       .  S
O235        C236   1.264       .  A
C236        C359   1.501       .  S
O237       Cr968   1.991       .  S
O237        C245   1.264       .  A
O238       Cr968   1.980       .  S
O238        C239   1.260       .  A
C239        C391   1.485       .  S
C239        O240   1.263       .  A
O240       Cr969   1.994       .  S
O241       Cr969   1.990       .  S
O241        C242   1.263       .  A
C242        C324   1.490       .  S
C242        O243   1.262       .  A
O243       Cr970   1.999       .  S
O244       Cr970   1.981       .  S
O244        C245   1.260       .  A
C245        C375   1.477       .  S
Cr246       O959   1.991   1_554  S
Cr246       O960   1.980   1_554  S
Cr246       O249   1.779       .  S
Cr247       O962   1.994   1_554  S
Cr247       O963   1.990   1_554  S
Cr247       O249   1.780       .  S
Cr248       O965   1.999   1_554  S
Cr248       O966   1.980   1_554  S
Cr248       O249   1.777       .  S
N250        C255   1.360       .  A
N250        C254   1.360       .  A
N250        H282   1.035       .  S
N251        C258   1.349       .  A
N251        C259   1.351       .  A
N252        C257   1.351       .  A
N252        C256   1.351       .  A
N252        H283   1.037       .  S
N253        C260   1.353       .  A
N253        C261   1.356       .  A
C254        C262   1.386       .  A
C254        C270   1.429       .  A
C255        C271   1.432       .  A
C255        C263   1.389       .  A
C256        C264   1.387       .  A
C256        C273   1.410       .  A
C257        C272   1.411       .  A
C257        C265   1.388       .  A
C258        C270   1.414       .  A
C258        C266   1.389       .  A
C259        C273   1.409       .  A
C259        C267   1.384       .  A
C260        C268   1.391       .  A
C260        C271   1.426       .  A
C261        C269   1.382       .  A
C261        C272   1.415       .  A
C262        C263   1.378       .  A
C262        H274   1.082       .  S
C263        H275   1.081       .  S
C264        C265   1.363       .  A
C264        H276   1.082       .  S
C265        H277   1.081       .  S
C266        C267   1.374       .  A
C266        H278   1.083       .  S
C267        H279   1.082       .  S
C268        C269   1.375       .  A
C268        H280   1.082       .  S
C269        H281   1.082       .  S
C270        C308   1.497       .  S
C271        C292   1.505       .  S
C272        C327   1.490       .  S
C273        C340   1.482       .  S
N284        C285   1.365       .  A
N284       C1010   1.363       .  A
N284        C295   1.447       .  S
C285        C708   1.490       .  S
C285       C1008   1.384       .  A
C286        C287   1.366       .  A
C286       C1007   1.384   1_554  A
C286        H289   1.082       .  S
C287        C288   1.377       .  A
C287        H290   1.082       .  S
C288       N1006   1.363   1_554  A
C288        C311   1.481       .  S
C291        C292   1.403       .  A
C291        C296   1.407       .  A
C291        H298   1.084       .  S
C292        C293   1.419       .  A
C293        C294   1.412       .  A
C293        C300   1.507       .  S
C294        C295   1.403       .  A
C294        H299   1.083       .  S
C295        C296   1.415       .  A
C296        C297   1.506       .  S
C297        H301   1.111       .  S
C297        H302   1.108       .  S
C297        H303   1.109       .  S
C300        H304   1.110       .  S
C300        H305   1.108       .  S
C300        H306   1.111       .  S
C307        C308   1.404       .  A
C307        C312   1.405       .  A
C307        H314   1.084       .  S
C308        C309   1.412       .  A
C309        C310   1.409       .  A
C309        C316   1.505       .  S
C310        C311   1.405       .  A
C310        H315   1.084       .  S
C311        C312   1.412       .  A
C312        C313   1.506       .  S
C313        H317   1.111       .  S
C313        H318   1.110       .  S
C313        H319   1.110       .  S
C316        H320   1.110       .  S
C316        H321   1.110       .  S
C316        H322   1.111       .  S
C323        C324   1.407       .  A
C323        C328   1.403       .  A
C323        H330   1.084       .  S
C324        C325   1.419       .  A
C325        C326   1.408       .  A
C325        C332   1.506       .  S
C326        C327   1.403       .  A
C326        H331   1.084       .  S
C327        C328   1.410       .  A
C328        C329   1.507       .  S
C329        H333   1.111       .  S
C329        H334   1.110       .  S
C329        H335   1.110       .  S
C332        H336   1.110       .  S
C332        H337   1.110       .  S
C332        H338   1.111       .  S
C339        C340   1.400       .  A
C339        C344   1.405       .  A
C339        H346   1.084       .  S
C340        C341   1.407       .  A
C341        C342   1.398       .  A
C341        C348   1.508       .  S
C342        C343   1.410       .  A
C342        H347   1.084       .  S
C343        C344   1.422       .  A
C344        C345   1.508       .  S
C345        H349   1.111       .  S
C345        H350   1.110       .  S
C345        H351   1.110       .  S
C348        H352   1.110       .  S
C348        H353   1.110       .  S
C348        H354   1.111       .  S
C355        C356   1.394       .  A
C355        C360   1.404       .  A
C355        H362   1.084       .  S
C356        C357   1.417       .  A
C357        C358   1.409       .  A
C357        C364   1.507       .  S
C358        C359   1.406       .  A
C358        H363   1.084       .  S
C359        C360   1.429       .  A
C360        C361   1.506       .  S
C361        H365   1.111       .  S
C361        H366   1.109       .  S
C361        H367   1.107       .  S
C364        H368   1.110       .  S
C364        H369   1.109       .  S
C364        H370   1.111       .  S
C371        C372   1.400       .  A
C371        C376   1.405       .  A
C371        H378   1.084       .  S
C372        C373   1.408       .  A
C373        C374   1.394       .  A
C373        C380   1.509       .  S
C374        C375   1.404       .  A
C374        H379   1.085       .  S
C375        C376   1.424       .  A
C376        C377   1.510       .  S
C377        H381   1.111       .  S
C377        H382   1.102       .  S
C377        H383   1.110       .  S
C380        H384   1.110       .  S
C380        H385   1.110       .  S
C380        H386   1.111       .  S
C387        C388   1.402       .  A
C387        C392   1.405       .  A
C387        H394   1.084       .  S
C388        C389   1.412       .  A
C389        C390   1.399       .  A
C389        C396   1.508       .  S
C390        C391   1.407       .  A
C390        H395   1.085       .  S
C391        C392   1.420       .  A
C392        C393   1.508       .  S
C393        H397   1.111       .  S
C393        H398   1.109       .  S
C393        H399   1.110       .  S
C396        H400   1.108       .  S
C396        H401   1.110       .  S
C396        H402   1.111       .  S
C403        C404   1.408       .  A
C403        C408   1.406       .  A
C403        H410   1.083       .  S
C404        C405   1.429       .  A
C405        C406   1.407       .  A
C405        C412   1.508       .  S
C406        C407   1.397       .  A
C406        H411   1.084       .  S
C407        C408   1.413       .  A
C408        C409   1.507       .  S
C409        H413   1.111       .  S
C409        H414   1.110       .  S
C409        H415   1.110       .  S
C412        H416   1.110       .  S
C412        H417   1.110       .  S
C412        H418   1.111       .  S
C419        C420   1.403       .  A
C419        C424   1.410       .  A
C419        H426   1.084       .  S
C420        C421   1.419       .  A
C421        C422   1.411       .  A
C421        C428   1.506       .  S
C422        C423   1.402       .  A
C422        H427   1.083       .  S
C423        C424   1.417       .  A
C424        C425   1.505       .  S
C425        H429   1.111       .  S
C425        H430   1.109       .  S
C425       H1153   1.110       .  S
C428        H432   1.111       .  S
C428        H433   1.108       .  S
C428        H434   1.110       .  S
H431       C1147   1.110       .  S
C435        C436   1.405       .  A
C435        C440   1.408       .  A
C435        H442   1.084       .  S
C436        C437   1.416       .  A
C437        C438   1.408       .  A
C437        C444   1.506       .  S
C438        C439   1.404       .  A
C438        H443   1.084       .  S
C439        C440   1.414       .  A
C440        C441   1.507       .  S
C441       H1167   1.111       .  S
C441       H1168   1.110       .  S
C441       H1169   1.109       .  S
C444        H448   1.108       .  S
C444        H449   1.110       .  S
C444        H450   1.110       .  S
H445       C1163   1.111       .  S
H446       C1163   1.110   1_554  S
H447       C1163   1.109       .  S
C451        C452   1.406       .  A
C451        C456   1.412       .  A
C451        H458   1.084       .  S
C452        C453   1.414       .  A
C453        C454   1.411       .  A
C453        C460   1.505       .  S
C454        C455   1.406       .  A
C454        H459   1.083       .  S
C455        C456   1.414       .  A
C456        C457   1.503       .  S
C457        H461   1.110       .  S
C457        H462   1.110       .  S
C457        H463   1.108       .  S
C460        H464   1.110       .  S
C460        H465   1.110       .  S
C460        H466   1.111       .  S
C467        C468   1.403       .  A
C467        C472   1.404       .  A
C467        H474   1.084       .  S
C468        C469   1.415       .  A
C469        C470   1.408       .  A
C469        C476   1.507       .  S
C470        C471   1.406       .  A
C470        H475   1.082       .  S
C471        C472   1.414       .  A
C472        C473   1.506       .  S
C473        H477   1.110       .  S
C473        H478   1.109       .  S
C473        H479   1.110       .  S
C476        H480   1.110       .  S
C476        H481   1.108       .  S
C476        H482   1.110       .  S
C483        C484   1.402       .  A
C483        C488   1.410   1_455  A
C483        H490   1.082       .  S
C484        C485   1.418   1_455  A
C485        C486   1.410       .  A
C485        C492   1.506       .  S
C486        C487   1.402       .  A
C486        H491   1.082       .  S
C487        C488   1.419       .  A
C488        C489   1.507       .  S
C489        H493   1.111   1_655  S
C489        H495   1.110       .  S
C489       H1216   1.108       .  S
C492        H497   1.110   1_655  S
C492        H498   1.111       .  S
C492       H1218   1.109   1_655  S
H494       C1211   1.108       .  S
H496       C1214   1.109   1_455  S
C499        C500   1.401       .  A
C499        C504   1.407       .  A
C499        H506   1.084       .  S
C500        C501   1.411       .  A
C501        C502   1.407       .  A
C501        C508   1.505       .  S
C502        C503   1.407       .  A
C502        H507   1.084       .  S
C503        C504   1.416       .  A
C504        C505   1.505       .  S
C505        H509   1.111       .  S
C505        H510   1.110       .  S
C505        H511   1.104       .  S
C508        H512   1.110       .  S
C508        H513   1.110       .  S
C508        H514   1.111       .  S
C515        C516   1.403       .  A
C515        C520   1.412       .  A
C515        H522   1.081       .  S
C516        C517   1.414       .  A
C517        C518   1.411       .  A
C517        C524   1.505       .  S
C518        C519   1.404       .  A
C518        H523   1.084       .  S
C519        C520   1.416       .  A
C520        C521   1.505       .  S
C521        H525   1.111       .  S
C521        H526   1.110       .  S
C521        H527   1.110       .  S
C524        H528   1.110       .  S
C524        H529   1.109       .  S
C524        H530   1.110       .  S
C531        C532   1.400       .  A
C531        C536   1.399       .  A
C531        H538   1.085       .  S
C532        C533   1.413       .  A
C533        C534   1.404       .  A
C533        C540   1.506       .  S
C534        C535   1.406       .  A
C534        H539   1.084       .  S
C535        C536   1.416       .  A
C536        C537   1.510       .  S
C537        H541   1.111       .  S
C537        H542   1.110       .  S
C537        H543   1.109       .  S
C540        H544   1.110       .  S
C540        H545   1.108       .  S
C540        H546   1.110       .  S
C547        C548   1.414       .  A
C547        C552   1.401       .  A
C547        H554   1.084       .  S
C548        C549   1.419       .  A
C549        C550   1.411       .  A
C549        C556   1.506       .  S
C550        C551   1.407       .  A
C550        H555   1.084       .  S
C551        C552   1.409       .  A
C552        C553   1.508       .  S
C553        H557   1.110       .  S
C553        H558   1.110       .  S
C553        H559   1.107       .  S
C556        H560   1.110       .  S
C556        H561   1.110       .  S
C556        H562   1.111       .  S
C563        C564   1.402       .  A
C563        C568   1.405       .  A
C563        H570   1.084       .  S
C564        C565   1.411       .  A
C565        C566   1.408       .  A
C565        C572   1.505       .  S
C566        C567   1.408       .  A
C566        H571   1.084       .  S
C567        C568   1.416       .  A
C568        C569   1.508       .  S
C569        H573   1.111       .  S
C569        H574   1.111       .  S
C569        H575   1.109       .  S
C572        H576   1.110       .  S
C572        H577   1.110       .  S
C572        H578   1.111       .  S
C579        C580   1.413       .  A
C579        C584   1.404       .  A
C579        H586   1.084       .  S
C580        C581   1.422       .  A
C581        C582   1.405       .  A
C581        C588   1.506       .  S
C582        C583   1.402       .  A
C582        H587   1.085       .  S
C583        C584   1.409       .  A
C584        C585   1.506       .  S
C585        H589   1.110       .  S
C585        H590   1.111       .  S
C585        H591   1.108       .  S
C588        H592   1.110       .  S
C588        H593   1.108       .  S
C588        H594   1.111       .  S
C595        C596   1.400       .  A
C595        C600   1.400       .  A
C595        H602   1.084       .  S
C596        C597   1.411       .  A
C597        C598   1.409       .  A
C597        C604   1.505       .  S
C598        C599   1.408       .  A
C598        H603   1.084       .  S
C599        C600   1.414       .  A
C600        C601   1.506       .  S
C601        H605   1.111       .  S
C601        H606   1.109       .  S
C601        H607   1.108       .  S
C604        H608   1.110       .  S
C604        H609   1.110       .  S
C604        H610   1.111       .  S
C611        C612   1.396       .  A
C611        C616   1.402       .  A
C611        H618   1.084       .  S
C612        C613   1.411       .  A
C613        C614   1.401       .  A
C613        C620   1.507       .  S
C614        C615   1.407       .  A
C614        H619   1.084       .  S
C615        C616   1.427       .  A
C616        C617   1.508       .  S
C617        H621   1.111       .  S
C617        H622   1.110       .  S
C617        H623   1.108       .  S
C620        H624   1.110       .  S
C620        H625   1.110       .  S
C620        H626   1.111       .  S
C627        C628   1.405       .  A
C627        C632   1.411       .  A
C627        H634   1.084       .  S
C628        C629   1.419       .  A
C629        C630   1.403       .  A
C629        C636   1.508       .  S
C630        C631   1.399       .  A
C630        H635   1.084       .  S
C631        C632   1.415       .  A
C632        C633   1.506       .  S
C633        H637   1.111       .  S
C633        H638   1.110       .  S
C633        H639   1.109       .  S
C636        H640   1.108       .  S
C636        H641   1.104       .  S
C636        H642   1.111       .  S
C643        C644   1.402       .  A
C643        C648   1.408       .  A
C643        H650   1.084       .  S
C644        C645   1.415       .  A
C645        C646   1.416       .  A
C645        C652   1.504       .  S
C646        C647   1.406       .  A
C646        H651   1.083       .  S
C647        C648   1.417       .  A
C648        C649   1.501       .  S
C649        H653   1.110       .  S
C649        H654   1.110       .  S
C649        H655   1.105       .  S
C652        H656   1.110       .  S
C652        H657   1.110       .  S
C652        H658   1.111       .  S
C659        C660   1.408       .  A
C659        C664   1.413       .  A
C659       H1388   1.084       .  S
C660        C661   1.413       .  A
C661        C662   1.410       .  A
C661        C668   1.502       .  S
C662        C663   1.406       .  A
C662        H667   1.084       .  S
C663        C664   1.414       .  A
C664       C1387   1.505       .  S
C665       C1386   1.505       .  S
C665        H669   1.111       .  S
C665        H671   1.110       .  S
C665       H1392   1.109       .  S
H666       C1381   1.084       .  S
C668        H672   1.110       .  S
C668        H673   1.108       .  S
C668        H674   1.111       .  S
H670       C1387   1.109       .  S
C675        C676   1.403       .  A
C675        C680   1.409       .  A
C675        H682   1.081       .  S
C676        C677   1.414       .  A
C677        C678   1.413       .  A
C677        C684   1.502       .  S
C678        C679   1.405       .  A
C678        H683   1.084       .  S
C679        C680   1.415       .  A
C680        C681   1.506       .  S
C681        H685   1.111       .  S
C681        H686   1.110       .  S
C681        H687   1.110       .  S
C684        H688   1.106       .  S
C684        H689   1.110       .  S
C684        H690   1.111       .  S
C691        C692   1.404       .  A
C691        C696   1.409       .  A
C691        H698   1.084       .  S
C692        C693   1.416       .  A
C693        C694   1.404       .  A
C693        C700   1.507       .  S
C694        C695   1.400       .  A
C694        H699   1.084       .  S
C695        C696   1.413       .  A
C696        C697   1.505       .  S
C697        H701   1.111       .  S
C697        H702   1.110       .  S
C697        H703   1.110       .  S
C700        H704   1.110       .  S
C700        H705   1.107       .  S
C700        H706   1.111       .  S
C707        C712   1.407       .  A
C707       C1430   1.407   1_565  A
C707        H714   1.084   1_565  S
C708        C709   1.414       .  A
C708       C1429   1.407   1_545  A
C709        C710   1.410   1_545  A
C709        C716   1.505       .  S
C710        C711   1.408       .  A
C710        H715   1.083       .  S
C711       C1434   1.413       .  A
C712       C1433   1.413       .  A
C712        C713   1.502       .  S
C713        H717   1.110       .  S
C713        H718   1.106       .  S
C713        H719   1.111       .  S
C716        H720   1.108       .  S
C716        H721   1.110       .  S
C716        H722   1.111       .  S
N723        C724   1.367       .  A
N723       C1398   1.449       .  S
C724       C1433   1.487       .  S
C725        C726   1.362       .  A
C725        H728   1.082       .  S
C726        C727   1.378       .  A
C726        H729   1.082       .  S
C727       C1414   1.479       .  S
N730        C731   1.369       .  A
N730       C1369   1.452       .  S
C731       C1382   1.489       .  S
C732        C733   1.362       .  A
C732        H735   1.083       .  S
C733        C734   1.379       .  A
C733        H736   1.083       .  S
C734       C1350   1.484       .  S
N737        C742   1.361       .  A
N737        C741   1.357       .  A
N737        H769   1.037       .  S
N738        C745   1.349       .  A
N738        C746   1.353       .  A
N739        C744   1.347       .  A
N739        C743   1.351       .  A
N739        H770   1.040       .  S
N740        C747   1.349       .  A
N740        C748   1.351       .  A
C741        C749   1.388       .  A
C741        C757   1.428       .  A
C742        C758   1.428       .  A
C742        C750   1.387       .  A
C743        C751   1.385       .  A
C743        C760   1.406       .  A
C744        C759   1.410       .  A
C744        C752   1.389       .  A
C745        C757   1.415       .  A
C745        C753   1.389       .  A
C746        C760   1.410       .  A
C746        C754   1.383       .  A
C747        C755   1.388       .  A
C747        C758   1.416       .  A
C748        C756   1.384       .  A
C748        C759   1.411       .  A
C749        C750   1.381       .  A
C749        H761   1.082       .  S
C750        H762   1.082       .  S
C751        C752   1.369       .  A
C751        H763   1.082       .  S
C752        H764   1.082       .  S
C753        C754   1.375       .  A
C753        H765   1.082       .  S
C754        H766   1.082       .  S
C755        C756   1.378       .  A
C755        H767   1.082       .  S
C756        H768   1.082       .  S
C757       C1417   1.493       .  S
C758       C1401   1.502       .  S
C759       C1334   1.481       .  S
C760       C1318   1.488       .  S
O771       Cr789   1.996       .  S
O771        C779   1.266       .  A
O772       Cr789   2.004       .  S
O772        C773   1.265       .  A
C773       C1302   1.499       .  S
C773        O774   1.260       .  A
O774       Cr790   1.977       .  S
O775       Cr790   2.003       .  S
O775        C776   1.266       .  A
C776       C1321   1.483       .  S
C776        O777   1.265       .  A
O777       Cr791   1.986       .  S
O778       Cr791   1.994       .  S
O778        C779   1.263       .  A
C779       C1270   1.501       .  S
O780        C788   1.262       .  A
O781        C782   1.262       .  A
C782       C1289   1.486       .  S
C782        O783   1.264       .  A
O784        C785   1.260       .  A
C785       C1337   1.491       .  S
C785        O786   1.259       .  A
O787        C788   1.264       .  A
C788       C1257   1.476       .  S
Cr789       O792   1.782       .  S
Cr790       O792   1.778       .  S
Cr791       O792   1.785       .  S
N793        C798   1.360       .  A
N793        C797   1.361       .  A
N793        H825   1.037       .  S
N794        C801   1.352       .  A
N794        C802   1.355       .  A
N795        C800   1.351       .  A
N795        C799   1.349       .  A
N795        H826   1.039       .  S
N796        C803   1.349       .  A
N796        C804   1.352       .  A
C797        C805   1.387       .  A
C797        C813   1.430       .  A
C798        C814   1.431       .  A
C798        C806   1.388       .  A
C799        C807   1.389       .  A
C799        C816   1.410       .  A
C800        C815   1.406       .  A
C800        C808   1.386       .  A
C801        C813   1.423       .  A
C801        C809   1.389       .  A
C802        C816   1.418       .  A
C802        C810   1.384       .  A
C803        C811   1.390       .  A
C803        C814   1.416       .  A
C804        C812   1.383       .  A
C804        C815   1.409       .  A
C805        C806   1.380       .  A
C805        H817   1.082       .  S
C806        H818   1.082       .  S
C807        C808   1.368       .  A
C807        H819   1.082       .  S
C808        H820   1.083       .  S
C809        C810   1.380       .  A
C809        H821   1.082       .  S
C810        H822   1.082       .  S
C811        C812   1.373       .  A
C811        H823   1.082       .  S
C812        H824   1.082       .  S
C813       C1366   1.507       .  S
C814       C1353   1.497       .  S
C815       C1254   1.484       .  S
C816       C1273   1.492       .  S
N827        C832   1.361       .  A
N827        C831   1.357       .  A
N827        H859   1.035       .  S
N828        C835   1.351       .  A
N828        C836   1.355       .  A
N829        C834   1.349       .  A
N829        C833   1.353       .  A
N829        H860   1.037       .  S
N830        C837   1.353       .  A
N830        C838   1.354       .  A
C831        C839   1.388       .  A
C831        C847   1.429       .  A
C832        C848   1.429       .  A
C832        C840   1.387       .  A
C833        C841   1.386       .  A
C833        C850   1.410       .  A
C834        C849   1.412       .  A
C834        C842   1.389       .  A
C835        C847   1.419       .  A
C835        C843   1.389       .  A
C836        C850   1.415       .  A
C836        C844   1.384       .  A
C837        C845   1.388       .  A
C837        C848   1.421       .  A
C838        C846   1.384       .  A
C838        C849   1.417       .  A
C839        C840   1.381       .  A
C839        H851   1.082       .  S
C840        H852   1.082       .  S
C841        C842   1.370       .  A
C841        H853   1.082       .  S
C842        H854   1.082       .  S
C843        C844   1.375       .  A
C843        H855   1.082       .  S
C844        H856   1.082       .  S
C845        C846   1.379       .  A
C845        H857   1.082       .  S
C846        H858   1.082       .  S
C847       C1222   1.494       .  S
C848       C1241   1.505       .  S
C849       C1305   1.488       .  S
C850       C1286   1.493       .  S
N861        C862   1.367       .  A
N861       C1238   1.449       .  S
C862       C1206   1.490       .  S
C863        C864   1.364       .  A
C863        H866   1.083       .  S
C864        C865   1.377       .  A
C864        H867   1.083       .  S
C865       C1225   1.486       .  S
N868        C869   1.369       .  A
N868       C1177   1.450       .  S
C869       C1209   1.491       .  S
C870        C871   1.362       .  A
C870        H873   1.083       .  S
C871        C872   1.376       .  A
C871        H874   1.083       .  S
C872       C1193   1.482       .  S
N875        C876   1.367       .  A
N875       C1145   1.450       .  S
C876       C1385   1.492       .  S
C877        C878   1.365       .  A
C877        H880   1.083       .  S
C878        C879   1.379       .  A
C878        H881   1.083       .  S
C879       C1161   1.485       .  S
N882        C887   1.359       .  A
N882        C886   1.360       .  A
N882        H914   1.035       .  S
N883        C890   1.352       .  A
N883        C891   1.355       .  A
N884        C889   1.352       .  A
N884        C888   1.350       .  A
N884        H915   1.037       .  S
N885        C892   1.350       .  A
N885        C893   1.353       .  A
C886        C894   1.387       .  A
C886        C902   1.430       .  A
C887        C903   1.430       .  A
C887        C895   1.388       .  A
C888        C896   1.388       .  A
C888        C905   1.409       .  A
C889        C904   1.407       .  A
C889        C897   1.386       .  A
C890        C902   1.423       .  A
C890        C898   1.389       .  A
C891        C905   1.415       .  A
C891        C899   1.384       .  A
C892        C900   1.390       .  A
C892        C903   1.417       .  A
C893        C901   1.383       .  A
C893        C904   1.410       .  A
C894        C895   1.381       .  A
C894        H906   1.082       .  S
C895        H907   1.082       .  S
C896        C897   1.366       .  A
C896        H908   1.082       .  S
C897        H909   1.081       .  S
C898        C899   1.380       .  A
C898        H910   1.082       .  S
C899        H911   1.082       .  S
C900        C901   1.373       .  A
C900        H912   1.082       .  S
C901        H913   1.082       .  S
C902       C1174   1.506       .  S
C903       C1190   1.496       .  S
C904       C1110   1.485       .  S
C905       C1129   1.490       .  S
N916        C921   1.349       .  A
N916        C920   1.348       .  A
N916        H948   1.038       .  S
N917        C924   1.355       .  A
N917        C925   1.351       .  A
N918        C923   1.359       .  A
N918        C922   1.360       .  A
N918        H949   1.034       .  S
N919        C926   1.352       .  A
N919        C927   1.351       .  A
C920        C928   1.387       .  A
C920        C936   1.407       .  A
C921        C937   1.404       .  A
C921        C929   1.387       .  A
C922        C930   1.388       .  A
C922        C939   1.431       .  A
C923        C938   1.429       .  A
C923        C931   1.387       .  A
C924        C936   1.416       .  A
C924        C932   1.383       .  A
C925        C939   1.423       .  A
C925        C933   1.389       .  A
C926        C934   1.384       .  A
C926        C937   1.411       .  A
C927        C935   1.389       .  A
C927        C938   1.417       .  A
C928        C929   1.370       .  A
C928        H940   1.082       .  S
C929        H941   1.082       .  S
C930        C931   1.382       .  A
C930        H942   1.082       .  S
C931        H943   1.082       .  S
C932        C933   1.380       .  A
C932        H944   1.082       .  S
C933        H945   1.082       .  S
C934        C935   1.375       .  A
C934        H946   1.083       .  S
C935        H947   1.082       .  S
C936       C1078   1.491       .  S
C937       C1094   1.479       .  S
C938       C1158   1.498       .  S
C939       C1142   1.505       .  S
O950       Cr968   1.995       .  S
O950        C958   1.265       .  A
O951       Cr968   2.001       .  S
O951        C952   1.263       .  A
C952       C1126   1.501       .  S
C952        O953   1.266       .  A
O953       Cr969   1.988       .  S
O954       Cr969   1.995       .  S
O954        C955   1.265       .  A
C955       C1065   1.489       .  S
C955        O956   1.262       .  A
O956       Cr970   1.977       .  S
O957       Cr970   2.004       .  S
O957        C958   1.263       .  A
C958       C1081   1.500       .  S
O959        C967   1.264       .  A
O960        C961   1.260       .  A
C961       C1113   1.485       .  S
C961        O962   1.263       .  A
O963        C964   1.263       .  A
C964       C1046   1.490       .  S
C964        O965   1.263       .  A
O966        C967   1.259       .  A
C967       C1097   1.476       .  S
Cr968       O971   1.779       .  S
Cr969       O971   1.780       .  S
Cr970       O971   1.777       .  S
N972        C977   1.360       .  A
N972        C976   1.360       .  A
N972       H1004   1.035       .  S
N973        C980   1.349       .  A
N973        C981   1.351       .  A
N974        C979   1.351       .  A
N974        C978   1.351       .  A
N974       H1005   1.037       .  S
N975        C982   1.353       .  A
N975        C983   1.356       .  A
C976        C984   1.386       .  A
C976        C992   1.429       .  A
C977        C993   1.432       .  A
C977        C985   1.389       .  A
C978        C986   1.387       .  A
C978        C995   1.410       .  A
C979        C994   1.411       .  A
C979        C987   1.388       .  A
C980        C992   1.414       .  A
C980        C988   1.389       .  A
C981        C995   1.409       .  A
C981        C989   1.384       .  A
C982        C990   1.390       .  A
C982        C993   1.426       .  A
C983        C991   1.382       .  A
C983        C994   1.415       .  A
C984        C985   1.379       .  A
C984        H996   1.082       .  S
C985        H997   1.081       .  S
C986        C987   1.363       .  A
C986        H998   1.082       .  S
C987        H999   1.081       .  S
C988        C989   1.374       .  A
C988       H1000   1.083       .  S
C989       H1001   1.082       .  S
C990        C991   1.375       .  A
C990       H1002   1.082       .  S
C991       H1003   1.082       .  S
C992       C1030   1.496       .  S
C993       C1014   1.506       .  S
C994       C1049   1.491       .  S
C995       C1062   1.482       .  S
N1006      C1007   1.365       .  A
N1006      C1017   1.447       .  S
C1007      C1430   1.490       .  S
C1008      C1009   1.366       .  A
C1008      H1011   1.082       .  S
C1009      C1010   1.377       .  A
C1009      H1012   1.082       .  S
C1010      C1033   1.481       .  S
C1013      C1014   1.404       .  A
C1013      C1018   1.407       .  A
C1013      H1020   1.084       .  S
C1014      C1015   1.419       .  A
C1015      C1016   1.412       .  A
C1015      C1022   1.507       .  S
C1016      C1017   1.403       .  A
C1016      H1021   1.083       .  S
C1017      C1018   1.415       .  A
C1018      C1019   1.506       .  S
C1019      H1023   1.111       .  S
C1019      H1024   1.108       .  S
C1019      H1025   1.109       .  S
C1022      H1026   1.110       .  S
C1022      H1027   1.108       .  S
C1022      H1028   1.111       .  S
C1029      C1030   1.403       .  A
C1029      C1034   1.405       .  A
C1029      H1036   1.084       .  S
C1030      C1031   1.412       .  A
C1031      C1032   1.409       .  A
C1031      C1038   1.505       .  S
C1032      C1033   1.405       .  A
C1032      H1037   1.084       .  S
C1033      C1034   1.412       .  A
C1034      C1035   1.506       .  S
C1035      H1039   1.111       .  S
C1035      H1040   1.110       .  S
C1035      H1041   1.110       .  S
C1038      H1042   1.110       .  S
C1038      H1043   1.110       .  S
C1038      H1044   1.111       .  S
C1045      C1046   1.408       .  A
C1045      C1050   1.403       .  A
C1045      H1052   1.084       .  S
C1046      C1047   1.419       .  A
C1047      C1048   1.409       .  A
C1047      C1054   1.506       .  S
C1048      C1049   1.403       .  A
C1048      H1053   1.084       .  S
C1049      C1050   1.410       .  A
C1050      C1051   1.507       .  S
C1051      H1055   1.111       .  S
C1051      H1056   1.110       .  S
C1051      H1057   1.110       .  S
C1054      H1058   1.110       .  S
C1054      H1059   1.110       .  S
C1054      H1060   1.111       .  S
C1061      C1062   1.400       .  A
C1061      C1066   1.405       .  A
C1061      H1068   1.084       .  S
C1062      C1063   1.407       .  A
C1063      C1064   1.398       .  A
C1063      C1070   1.508       .  S
C1064      C1065   1.410       .  A
C1064      H1069   1.084       .  S
C1065      C1066   1.422       .  A
C1066      C1067   1.508       .  S
C1067      H1071   1.111       .  S
C1067      H1072   1.110       .  S
C1067      H1073   1.110       .  S
C1070      H1074   1.110       .  S
C1070      H1075   1.110       .  S
C1070      H1076   1.111       .  S
C1077      C1078   1.394       .  A
C1077      C1082   1.404       .  A
C1077      H1084   1.084       .  S
C1078      C1079   1.417       .  A
C1079      C1080   1.408       .  A
C1079      C1086   1.507       .  S
C1080      C1081   1.406       .  A
C1080      H1085   1.084       .  S
C1081      C1082   1.428       .  A
C1082      C1083   1.506       .  S
C1083      H1087   1.111       .  S
C1083      H1088   1.109       .  S
C1083      H1089   1.107       .  S
C1086      H1090   1.110       .  S
C1086      H1091   1.109       .  S
C1086      H1092   1.111       .  S
C1093      C1094   1.400       .  A
C1093      C1098   1.405       .  A
C1093      H1100   1.084       .  S
C1094      C1095   1.408       .  A
C1095      C1096   1.394       .  A
C1095      C1102   1.509       .  S
C1096      C1097   1.404       .  A
C1096      H1101   1.085       .  S
C1097      C1098   1.424       .  A
C1098      C1099   1.510       .  S
C1099      H1103   1.111       .  S
C1099      H1104   1.102       .  S
C1099      H1105   1.110       .  S
C1102      H1106   1.110       .  S
C1102      H1107   1.110       .  S
C1102      H1108   1.111       .  S
C1109      C1110   1.401       .  A
C1109      C1114   1.405       .  A
C1109      H1116   1.084       .  S
C1110      C1111   1.412       .  A
C1111      C1112   1.399       .  A
C1111      C1118   1.509       .  S
C1112      C1113   1.407       .  A
C1112      H1117   1.085       .  S
C1113      C1114   1.420       .  A
C1114      C1115   1.508       .  S
C1115      H1119   1.111       .  S
C1115      H1120   1.109       .  S
C1115      H1121   1.110       .  S
C1118      H1122   1.108       .  S
C1118      H1123   1.110       .  S
C1118      H1124   1.111       .  S
C1125      C1126   1.408       .  A
C1125      C1130   1.406       .  A
C1125      H1132   1.083       .  S
C1126      C1127   1.429       .  A
C1127      C1128   1.406       .  A
C1127      C1134   1.508       .  S
C1128      C1129   1.397       .  A
C1128      H1133   1.084       .  S
C1129      C1130   1.413       .  A
C1130      C1131   1.507       .  S
C1131      H1135   1.111       .  S
C1131      H1136   1.110       .  S
C1131      H1137   1.110       .  S
C1134      H1138   1.110       .  S
C1134      H1139   1.109       .  S
C1134      H1140   1.111       .  S
C1141      C1142   1.403       .  A
C1141      C1146   1.410       .  A
C1141      H1148   1.084       .  S
C1142      C1143   1.419       .  A
C1143      C1144   1.411       .  A
C1143      C1150   1.506       .  S
C1144      C1145   1.402       .  A
C1144      H1149   1.083       .  S
C1145      C1146   1.417       .  A
C1146      C1147   1.505       .  S
C1147      H1151   1.111       .  S
C1147      H1152   1.109       .  S
C1150      H1154   1.111       .  S
C1150      H1155   1.108       .  S
C1150      H1156   1.110       .  S
C1157      C1158   1.404       .  A
C1157      C1162   1.407       .  A
C1157      H1164   1.084       .  S
C1158      C1159   1.416       .  A
C1159      C1160   1.408       .  A
C1159      C1166   1.506       .  S
C1160      C1161   1.404       .  A
C1160      H1165   1.084       .  S
C1161      C1162   1.414       .  A
C1162      C1163   1.507       .  S
C1166      H1170   1.108       .  S
C1166      H1171   1.110       .  S
C1166      H1172   1.110       .  S
C1173      C1174   1.406       .  A
C1173      C1178   1.411       .  A
C1173      H1180   1.084       .  S
C1174      C1175   1.414       .  A
C1175      C1176   1.411       .  A
C1175      C1182   1.505       .  S
C1176      C1177   1.406       .  A
C1176      H1181   1.083       .  S
C1177      C1178   1.414       .  A
C1178      C1179   1.502       .  S
C1179      H1183   1.110       .  S
C1179      H1184   1.110       .  S
C1179      H1185   1.108       .  S
C1182      H1186   1.110       .  S
C1182      H1187   1.110       .  S
C1182      H1188   1.111       .  S
C1189      C1190   1.403       .  A
C1189      C1194   1.403       .  A
C1189      H1196   1.084       .  S
C1190      C1191   1.415       .  A
C1191      C1192   1.408       .  A
C1191      C1198   1.507       .  S
C1192      C1193   1.406       .  A
C1192      H1197   1.082       .  S
C1193      C1194   1.414       .  A
C1194      C1195   1.506       .  S
C1195      H1199   1.110       .  S
C1195      H1200   1.109       .  S
C1195      H1201   1.110       .  S
C1198      H1202   1.110       .  S
C1198      H1203   1.108       .  S
C1198      H1204   1.110       .  S
C1205      C1206   1.402       .  A
C1205      C1210   1.410   1_455  A
C1205      H1212   1.082       .  S
C1206      C1207   1.418   1_455  A
C1207      C1208   1.410       .  A
C1207      C1214   1.506       .  S
C1208      C1209   1.402       .  A
C1208      H1213   1.082       .  S
C1209      C1210   1.419       .  A
C1210      C1211   1.507       .  S
C1211      H1215   1.111   1_655  S
C1211      H1217   1.110       .  S
C1214      H1219   1.110   1_655  S
C1214      H1220   1.111       .  S
C1221      C1222   1.401       .  A
C1221      C1226   1.407       .  A
C1221      H1228   1.084       .  S
C1222      C1223   1.411       .  A
C1223      C1224   1.407       .  A
C1223      C1230   1.505       .  S
C1224      C1225   1.407       .  A
C1224      H1229   1.084       .  S
C1225      C1226   1.416       .  A
C1226      C1227   1.504       .  S
C1227      H1231   1.111       .  S
C1227      H1232   1.110       .  S
C1227      H1233   1.104       .  S
C1230      H1234   1.110       .  S
C1230      H1235   1.110       .  S
C1230      H1236   1.111       .  S
C1237      C1238   1.402       .  A
C1237      C1242   1.412       .  A
C1237      H1244   1.081       .  S
C1238      C1239   1.414       .  A
C1239      C1240   1.411       .  A
C1239      C1246   1.505       .  S
C1240      C1241   1.404       .  A
C1240      H1245   1.084       .  S
C1241      C1242   1.416       .  A
C1242      C1243   1.505       .  S
C1243      H1247   1.111       .  S
C1243      H1248   1.110       .  S
C1243      H1249   1.110       .  S
C1246      H1250   1.110       .  S
C1246      H1251   1.109       .  S
C1246      H1252   1.110       .  S
C1253      C1254   1.400       .  A
C1253      C1258   1.399       .  A
C1253      H1260   1.085       .  S
C1254      C1255   1.413       .  A
C1255      C1256   1.405       .  A
C1255      C1262   1.506       .  S
C1256      C1257   1.406       .  A
C1256      H1261   1.084       .  S
C1257      C1258   1.416       .  A
C1258      C1259   1.510       .  S
C1259      H1263   1.111       .  S
C1259      H1264   1.110       .  S
C1259      H1265   1.109       .  S
C1262      H1266   1.110       .  S
C1262      H1267   1.108       .  S
C1262      H1268   1.110       .  S
C1269      C1270   1.414       .  A
C1269      C1274   1.401       .  A
C1269      H1276   1.084       .  S
C1270      C1271   1.419       .  A
C1271      C1272   1.411       .  A
C1271      C1278   1.506       .  S
C1272      C1273   1.407       .  A
C1272      H1277   1.084       .  S
C1273      C1274   1.409       .  A
C1274      C1275   1.508       .  S
C1275      H1279   1.110       .  S
C1275      H1280   1.111       .  S
C1275      H1281   1.107       .  S
C1278      H1282   1.110       .  S
C1278      H1283   1.110       .  S
C1278      H1284   1.111       .  S
C1285      C1286   1.402       .  A
C1285      C1290   1.405       .  A
C1285      H1292   1.084       .  S
C1286      C1287   1.411       .  A
C1287      C1288   1.408       .  A
C1287      C1294   1.505       .  S
C1288      C1289   1.408       .  A
C1288      H1293   1.084       .  S
C1289      C1290   1.416       .  A
C1290      C1291   1.508       .  S
C1291      H1295   1.111       .  S
C1291      H1296   1.111       .  S
C1291      H1297   1.109       .  S
C1294      H1298   1.110       .  S
C1294      H1299   1.110       .  S
C1294      H1300   1.111       .  S
C1301      C1302   1.413       .  A
C1301      C1306   1.404       .  A
C1301      H1308   1.084       .  S
C1302      C1303   1.422       .  A
C1303      C1304   1.405       .  A
C1303      C1310   1.506       .  S
C1304      C1305   1.402       .  A
C1304      H1309   1.085       .  S
C1305      C1306   1.409       .  A
C1306      C1307   1.506       .  S
C1307      H1311   1.110       .  S
C1307      H1312   1.111       .  S
C1307      H1313   1.108       .  S
C1310      H1314   1.110       .  S
C1310      H1315   1.108       .  S
C1310      H1316   1.111       .  S
C1317      C1318   1.400       .  A
C1317      C1322   1.400       .  A
C1317      H1324   1.084       .  S
C1318      C1319   1.411       .  A
C1319      C1320   1.409       .  A
C1319      C1326   1.505       .  S
C1320      C1321   1.408       .  A
C1320      H1325   1.084       .  S
C1321      C1322   1.415       .  A
C1322      C1323   1.506       .  S
C1323      H1327   1.111       .  S
C1323      H1328   1.109       .  S
C1323      H1329   1.108       .  S
C1326      H1330   1.110       .  S
C1326      H1331   1.110       .  S
C1326      H1332   1.111       .  S
C1333      C1334   1.396       .  A
C1333      C1338   1.402       .  A
C1333      H1340   1.084       .  S
C1334      C1335   1.411       .  A
C1335      C1336   1.401       .  A
C1335      C1342   1.507       .  S
C1336      C1337   1.407       .  A
C1336      H1341   1.084       .  S
C1337      C1338   1.427       .  A
C1338      C1339   1.508       .  S
C1339      H1343   1.111       .  S
C1339      H1344   1.110       .  S
C1339      H1345   1.108   1_556  S
C1342      H1346   1.110       .  S
C1342      H1347   1.110       .  S
C1342      H1348   1.111       .  S
C1349      C1350   1.405       .  A
C1349      C1354   1.411       .  A
C1349      H1356   1.084       .  S
C1350      C1351   1.419       .  A
C1351      C1352   1.403       .  A
C1351      C1358   1.508       .  S
C1352      C1353   1.399       .  A
C1352      H1357   1.084       .  S
C1353      C1354   1.415       .  A
C1354      C1355   1.506       .  S
C1355      H1359   1.111       .  S
C1355      H1360   1.110       .  S
C1355      H1361   1.109       .  S
C1358      H1362   1.108       .  S
C1358      H1363   1.104       .  S
C1358      H1364   1.111       .  S
C1365      C1366   1.402       .  A
C1365      C1370   1.408       .  A
C1365      H1372   1.084       .  S
C1366      C1367   1.415       .  A
C1367      C1368   1.416       .  A
C1367      C1374   1.504       .  S
C1368      C1369   1.406       .  A
C1368      H1373   1.083       .  S
C1369      C1370   1.417       .  A
C1370      C1371   1.501       .  S
C1371      H1375   1.110       .  S
C1371      H1376   1.110       .  S
C1371      H1377   1.105       .  S
C1374      H1378   1.110       .  S
C1374      H1379   1.110       .  S
C1374      H1380   1.111       .  S
C1381      C1382   1.408       .  A
C1381      C1386   1.413       .  A
C1382      C1383   1.413       .  A
C1383      C1384   1.410       .  A
C1383      C1390   1.502       .  S
C1384      C1385   1.406       .  A
C1384      H1389   1.084       .  S
C1385      C1386   1.414       .  A
C1387      H1391   1.111       .  S
C1387      H1393   1.110       .  S
C1390      H1394   1.110       .  S
C1390      H1395   1.108       .  S
C1390      H1396   1.111       .  S
C1397      C1398   1.403       .  A
C1397      C1402   1.409       .  A
C1397      H1404   1.081       .  S
C1398      C1399   1.414       .  A
C1399      C1400   1.413       .  A
C1399      C1406   1.502       .  S
C1400      C1401   1.405       .  A
C1400      H1405   1.084       .  S
C1401      C1402   1.415       .  A
C1402      C1403   1.506       .  S
C1403      H1407   1.111       .  S
C1403      H1408   1.110       .  S
C1403      H1409   1.110       .  S
C1406      H1410   1.106       .  S
C1406      H1411   1.110       .  S
C1406      H1412   1.111       .  S
C1413      C1414   1.404       .  A
C1413      C1418   1.409       .  A
C1413      H1420   1.084       .  S
C1414      C1415   1.416       .  A
C1415      C1416   1.404       .  A
C1415      C1422   1.508       .  S
C1416      C1417   1.400       .  A
C1416      H1421   1.084       .  S
C1417      C1418   1.413       .  A
C1418      C1419   1.505       .  S
C1419      H1423   1.111       .  S
C1419      H1424   1.110       .  S
C1419      H1425   1.110       .  S
C1422      H1426   1.109       .  S
C1422      H1427   1.108       .  S
C1422      H1428   1.111       .  S
C1429      C1434   1.407       .  A
C1429      H1436   1.084   1_565  S
C1430      C1431   1.414       .  A
C1431      C1432   1.410   1_545  A
C1431      C1438   1.505       .  S
C1432      C1433   1.408       .  A
C1432      H1437   1.083       .  S
C1434      C1435   1.502       .  S
C1435      H1439   1.110       .  S
C1435      H1440   1.106       .  S
C1435      H1441   1.111       .  S
C1438      H1442   1.108       .  S
C1438      H1443   1.110       .  S
C1438      H1444   1.111       .  S
