geometry optimzed in LAMMPS
_audit_creation_date              2020-12-01 
_audit_creation_method            'lammps2cif' 
_symmetry_space_group_name_H-M    'P1' 
_symmetry_Int_Tables_number       1 
_symmetry_cell_setting            triclinic 
loop_ 
_symmetry_equiv_pos_as_xyz 
  x,y,z 
_cell_length_a                    26.92537149 
_cell_length_b                    46.105414480792746 
_cell_length_c                    39.86008713234954 
_cell_angle_alpha                 89.99989326061142 
_cell_angle_beta                  89.99938712623909 
_cell_angle_gamma                 90.00033599220572 
loop_ 
_atom_site_label 
_atom_site_type_symbol 
_atom_site_fract_x 
_atom_site_fract_y 
_atom_site_fract_z 
_atom_site_charge 
O1          O  0.25000706  0.74837152  0.30737960    -0.71600
O2          O  0.25001026  0.79293237  0.22083358    -0.72600
O3          O  0.17546035  0.77087851  0.26366131    -0.61200
O4          O  0.32455716  0.77087756  0.26366143    -0.69600
O5          O  0.32456059  0.72884728  0.23633518    -0.69200
O6          O  0.17545604  0.72884826  0.23633498    -0.60500
O7          O  0.25000993  0.75134213  0.19261699    -0.73000
O8          O  0.25000669  0.70678147  0.27916276    -0.71700
Cu9        Cu  0.25000874  0.77219718  0.26494666     1.04600
Cu10       Cu  0.25000829  0.72752105  0.23505144     1.04300
C11         C  0.25000631  0.72066651  0.30682683     0.94600
C12         C  0.25001050  0.77904685  0.19316953     0.93700
C13         C  0.15211880  0.74986718  0.24999299     0.85800
C14         C  0.34789827  0.74986613  0.24999297     0.92100
O15         O  0.50000752  0.79295971  0.27913618    -0.71600
O16         O  0.00001034  0.74840356  0.19259937    -0.72600
O17         O  0.42545252  0.77089063  0.23631865    -0.61200
O18         O  0.07456512  0.77089158  0.23631913    -0.69600
O19         O  0.07455262  0.72886146  0.26364591    -0.69200
O20         O  0.42546389  0.72886048  0.26364535    -0.60500
O21         O  0.00000959  0.70680873  0.22080741    -0.73000
O22         O  0.50000691  0.75137437  0.30736221    -0.71700
Cu23       Cu  0.50000889  0.77221934  0.23503114     1.04600
Cu24       Cu  0.00000826  0.72754332  0.26492675     1.04300
C25         C  0.50000677  0.77908022  0.30680313     0.94600
C26         C  0.00001047  0.72069967  0.19314600     0.93700
C27         C  0.40211881  0.74987319  0.24998423     0.85800
C28         C  0.09789826  0.74987427  0.24998474     0.92100
O29         O  0.32453876  0.27098712  0.76371749    -0.71600
O30         O  0.17546321  0.27098624  0.76371825    -0.72600
O31         O  0.25000136  0.24847913  0.80741952    -0.61200
O32         O  0.25000074  0.29304101  0.72086767    -0.69600
O33         O  0.25000087  0.25144800  0.69265731    -0.69200
O34         O  0.25000149  0.20689098  0.77919800    -0.60500
O35         O  0.17543840  0.22895557  0.73639279    -0.73000
O36         O  0.32456421  0.22895644  0.73639203    -0.71700
Cu37       Cu  0.25000100  0.27230626  0.76498872     1.04600
Cu38       Cu  0.25000127  0.22762967  0.73509432     1.04300
C39         C  0.34789086  0.24996883  0.75007497     0.94600
C40         C  0.15211143  0.24996790  0.75007557     0.93700
C41         C  0.25000167  0.22077395  0.80686242     0.85800
C42         C  0.25000056  0.27915252  0.69320463     0.92100
O43         O  0.00000006  0.20690290  0.72100882    -0.71600
O44         O  0.00000116  0.25145828  0.80754673    -0.72600
O45         O  0.42544116  0.22896365  0.76380817    -0.61200
O46         O  0.07455983  0.22896279  0.76380787    -0.69600
O47         O  0.07454320  0.27099350  0.73648234    -0.69200
O48         O  0.42546030  0.27099435  0.73648263    -0.60500
O49         O  0.00000212  0.29305248  0.77933943    -0.73000
O50         O  0.00000131  0.24848995  0.69278416    -0.71700
Cu51       Cu  0.00000053  0.22764029  0.76510831     1.04600
Cu52       Cu  0.00000182  0.27231685  0.73521392     1.04300
C53         C  0.00000046  0.22078486  0.69334441     0.94600
C54         C  0.00000199  0.27916289  0.80700255     0.93700
C55         C  0.40211136  0.24997244  0.75012195     0.85800
C56         C  0.09789090  0.24997154  0.75012191     0.92100
O57         O  0.25000675  0.70705527  0.72083364    -0.71600
O58         O  0.25000771  0.75161667  0.80737917    -0.72600
O59         O  0.17545885  0.72911044  0.76366142    -0.61200
O60         O  0.32455563  0.72910940  0.76366096    -0.69600
O61         O  0.32456079  0.77113947  0.73633409    -0.69200
O62         O  0.17545633  0.77114042  0.73633436    -0.60500
O63         O  0.25000916  0.79320660  0.77916191    -0.73000
O64         O  0.25000800  0.74864531  0.69261647    -0.71700
Cu65       Cu  0.25000721  0.72779083  0.76494648     1.04600
Cu66       Cu  0.25000862  0.77246670  0.73505065     1.04300
C67         C  0.25000699  0.72094058  0.69316938     0.94600
C68         C  0.25000879  0.77932168  0.80682614     0.93700
C69         C  0.15211819  0.75012169  0.74999247     0.85800
C70         C  0.34789761  0.75012060  0.74999233     0.92100
O71         O  0.42546336  0.77112639  0.76364503    -0.71600
O72         O  0.07455202  0.77112745  0.76364426    -0.72600
O73         O  0.00000728  0.79317894  0.72080646    -0.61200
O74         O  0.00000803  0.74861369  0.80736146    -0.69600
O75         O  0.00000844  0.70702823  0.77913589    -0.69200
O76         O  0.50000759  0.75158407  0.69259868    -0.60500
O77         O  0.07456440  0.72909712  0.73631812    -0.73000
O78         O  0.42545176  0.72909605  0.73631889    -0.71700
Cu79       Cu  0.00000762  0.77244454  0.76492579     1.04600
Cu80       Cu  0.50000806  0.72776838  0.73503066     1.04300
C81         C  0.40211816  0.75011349  0.74998413     0.94600
C82         C  0.09789762  0.75011462  0.74998355     0.93700
C83         C  0.50000692  0.77928796  0.69314516     0.85800
C84         C  0.00000852  0.72090784  0.80680270     0.92100
N85         N  0.25000965  0.83561666  0.94829886    -0.26000
N86         N  0.25000636  0.86036336  0.93150675    -0.33800
C87         C  0.25000647  0.85455066  0.89841608     0.02400
C88         C  0.25001002  0.82480404  0.89448935     0.08400
C89         C  0.25001195  0.81341203  0.92644257    -0.04700
H90         H  0.25000375  0.87075850  0.87878310     0.09100
H91         H  0.25001450  0.79071759  0.93336348     0.10300
Cu92       Cu  0.25000088  0.90074898  0.95455991     0.44200
Cu93       Cu  0.25001013  0.83298664  0.00003869     0.42000
Cu94       Cu  0.24999818  0.90070441  0.04572536     0.43900
N95         N  0.24999585  0.93818035  0.98357041    -0.33400
N96         N  0.24999465  0.93817660  0.01675663    -0.27600
C97         C  0.24999245  0.96577958  0.02773938    -0.03700
C98         C  0.24999229  0.98401061  0.00015897     0.08500
C99         C  0.24999430  0.96577879  0.97258583     0.02300
H100        H  0.24999181  0.97206604  0.05388932     0.09900
H101        H  0.24999535  0.97206087  0.94643458     0.09000
N102        N  0.25000451  0.86024931  0.06864301    -0.34800
N103        N  0.25000925  0.83553509  0.05178365    -0.27000
C104        C  0.25001253  0.81328527  0.07357943    -0.02200
C105        C  0.25000978  0.82461155  0.10556318     0.06400
C106        C  0.25000466  0.85436592  0.10171698     0.04500
H107        H  0.25001627  0.79060480  0.06659633     0.09600
H108        H  0.25000109  0.87053266  0.12139533     0.08400
N109        N  0.25000464  0.16438385  0.94827962    -0.26000
N110        N  0.25000184  0.13964784  0.93146392    -0.33800
C111        C  0.25000122  0.14548768  0.89837906     0.02400
C112        C  0.25000373  0.17523773  0.89448335     0.08400
C113        C  0.25000580  0.18660472  0.92644635    -0.04700
H114        H  0.24999879  0.12929561  0.87872843     0.09100
H115        H  0.25000769  0.20929408  0.93339040     0.10300
Cu116      Cu  0.24999838  0.09923224  0.95446791     0.44200
Cu117      Cu  0.25000606  0.16700369  0.00001825     0.42000
Cu118      Cu  0.24999904  0.09929352  0.04563188     0.43900
N119        N  0.24999462  0.06179948  0.98349765    -0.33400
N120        N  0.24999471  0.06182218  0.01668381    -0.27600
C121        C  0.24999317  0.03422934  0.02769589    -0.03700
C122        C  0.24999219  0.01597874  0.00013718     0.08500
C123        C  0.24999306  0.03419096  0.97254231     0.02300
H124        H  0.24999361  0.02796381  0.05385250     0.09900
H125        H  0.24999329  0.02788802  0.94639778     0.09000
N126        N  0.25000386  0.13971846  0.06859862    -0.34800
N127        N  0.25000667  0.16444370  0.05176348    -0.27000
C128        C  0.25000831  0.18667693  0.07358263    -0.02200
C129        C  0.25000631  0.17532489  0.10555613     0.06400
C130        C  0.25000349  0.14557404  0.10167849     0.04500
H131        H  0.25000999  0.20936262  0.06662319     0.09600
H132        H  0.25000071  0.12939120  0.12133877     0.08400
N133        N  0.24999877  0.33560376  0.44827937    -0.26000
N134        N  0.25000303  0.36033954  0.43146321    -0.33800
C135        C  0.25000315  0.35449928  0.39837833     0.02400
C136        C  0.24999872  0.32474906  0.39448332     0.08400
C137        C  0.24999596  0.31338249  0.42644661    -0.04700
H138        H  0.25000666  0.37069095  0.37872751     0.09100
H139        H  0.24999268  0.29069339  0.43339113     0.10300
Cu140      Cu  0.25000935  0.40075532  0.45446722     0.44200
Cu141      Cu  0.24999825  0.33298449  0.50001810     0.42000
Cu142      Cu  0.25000643  0.40069387  0.54563249     0.43900
N143        N  0.25001335  0.43818788  0.48349747    -0.33400
N144        N  0.25001203  0.43816508  0.51668368    -0.27600
C145        C  0.25001371  0.46575788  0.52769564    -0.03700
C146        C  0.25001619  0.48400864  0.50013708     0.08500
C147        C  0.25001597  0.46579650  0.47254212     0.02300
H148        H  0.25001250  0.47202340  0.55385240     0.09900
H149        H  0.25001686  0.47209952  0.44639772     0.09000
N150        N  0.25000121  0.36026863  0.56859890    -0.34800
N151        N  0.24999828  0.33554361  0.55176332    -0.27000
C152        C  0.24999653  0.31331009  0.57358210    -0.02200
C153        C  0.24999839  0.32466155  0.60555581     0.06400
C154        C  0.25000138  0.35441237  0.60167852     0.04500
H155        H  0.24999461  0.29062440  0.56662221     0.09600
H156        H  0.25000408  0.37059509  0.62133939     0.08400
N157        N  0.25000312  0.66437144  0.44829959    -0.26000
N158        N  0.25000588  0.63962473  0.43150753    -0.33800
C159        C  0.25000596  0.64543757  0.39841698     0.02400
C160        C  0.25000301  0.67518414  0.39449011     0.08400
C161        C  0.25000123  0.68657605  0.42644328    -0.04700
H162        H  0.25000852  0.62922960  0.37878385     0.09100
H163        H  0.24999937  0.70927058  0.43336419     0.10300
Cu164      Cu  0.25001061  0.59923894  0.45456053     0.44200
Cu165      Cu  0.25000350  0.66700142  0.50003918     0.42000
Cu166      Cu  0.25001138  0.59928292  0.54572557     0.43900
N167        N  0.25001453  0.56180725  0.48357074    -0.33400
N168        N  0.25001448  0.56181076  0.51675694    -0.27600
C169        C  0.25001586  0.53420768  0.52773959    -0.03700
C170        C  0.25001676  0.51597683  0.50015902     0.08500
C171        C  0.25001598  0.53420889  0.47258602     0.02300
H172        H  0.25001554  0.52792109  0.55388943     0.09900
H173        H  0.25001556  0.52792703  0.44643471     0.09000
N174        N  0.25000784  0.63973802  0.56864327    -0.38000
N175        N  0.25000513  0.66445230  0.55178400    -0.27000
C176        C  0.25000368  0.68670212  0.57357976    -0.02200
C177        C  0.25000564  0.67537564  0.60556347     0.06400
C178        C  0.25000829  0.64562121  0.60171736     0.04500
H179        H  0.25000148  0.70938245  0.56659671     0.09600
H180        H  0.25001059  0.62945453  0.62139550     0.08400
N181        N  0.50000450  0.83558423  0.44817313    -0.26000
N182        N  0.50000748  0.86030593  0.43132692    -0.33800
C183        C  0.50000767  0.85443289  0.39824876     0.02400
C184        C  0.50000475  0.82467812  0.39438950     0.08400
C185        C  0.50000275  0.81334292  0.42636731    -0.04700
H186        H  0.50001010  0.87060580  0.37857738     0.09100
H187        H  0.50000072  0.79066044  0.43334043     0.10300
Cu188      Cu  0.50001167  0.90075549  0.45427007     0.44200
Cu189      Cu  0.50000428  0.83298714  0.49991484     0.42000
Cu190      Cu  0.50000874  0.90069885  0.54543554     0.43900
N191        N  0.50001455  0.93819708  0.48329761    -0.33400
N192        N  0.50001333  0.93816102  0.51648381    -0.27600
C193        C  0.50001481  0.96574553  0.52751482    -0.03700
C194        C  0.50001697  0.98401117  0.49997263     0.08500
C195        C  0.50001683  0.96581398  0.47236131     0.02300
H196        H  0.50001362  0.97199494  0.55367655     0.09900
H197        H  0.50001761  0.97213309  0.44622195     0.09000
N198        N  0.50000506  0.86030750  0.56846312    -0.34800
N199        N  0.50000356  0.83556839  0.55165766    -0.27000
C200        C  0.50000257  0.81335499  0.57350360    -0.02200
C201        C  0.50000342  0.82473791  0.60546283     0.06400
C202        C  0.50000506  0.85448418  0.60154954     0.04500
H203        H  0.50000195  0.79066272  0.56657252     0.09600
H204        H  0.50000676  0.87068574  0.62118974     0.08400
N205        N  0.50000090  0.16436560  0.55195233    -0.26000
N206        N  0.50000484  0.13963191  0.56877488    -0.33800
C207        C  0.50000502  0.14547901  0.60185794     0.02400
C208        C  0.50000091  0.17522946  0.60574394     0.08400
C209        C  0.49999845  0.18659012  0.57377950    -0.04700
H210        H  0.50000806  0.12929157  0.62151349     0.09100
H211        H  0.49999530  0.20927805  0.56682973     0.10300
Cu212      Cu  0.50000996  0.09920261  0.54580067     0.44200
Cu213      Cu  0.49999945  0.16700437  0.50021475     0.42000
Cu214      Cu  0.50000808  0.09932405  0.45463641     0.43900
N215        N  0.50001374  0.06178546  0.51674238    -0.33400
N216        N  0.50001323  0.06183720  0.48355624    -0.27600
C217        C  0.50001524  0.03425556  0.47251066    -0.03700
C218        C  0.50001688  0.01597928  0.50004494     0.08500
C219        C  0.50001594  0.03416580  0.52766410     0.02300
H220        H  0.50001462  0.02801507  0.44634604     0.09900
H221        H  0.50001609  0.02783781  0.55380062     0.09000
N222        N  0.50000183  0.13973558  0.43164015    -0.34800
N223        N  0.49999840  0.16446313  0.44846857    -0.27000
C224        C  0.49999537  0.18669278  0.42664344    -0.02200
C225        C  0.49999711  0.17533455  0.39467134     0.06400
C226        C  0.50000122  0.14558415  0.39855860     0.04500
H227        H  0.49999275  0.20937990  0.43359727     0.09600
H228        H  0.50000406  0.12939667  0.37890294     0.08400
N229        N  0.00000288  0.33562251  0.05195206    -0.26000
N230        N  0.99999995  0.36035595  0.06877505    -0.33800
C231        C  0.00000002  0.35450818  0.10185794     0.02400
C232        C  0.00000313  0.32475766  0.10574347     0.08400
C233        C  0.00000490  0.31339769  0.07377880    -0.04700
H234        H  0.99999781  0.37069541  0.12151394     0.09100
H235        H  0.00000717  0.29070973  0.06682850     0.10300
Cu236      Cu  0.99999617  0.40078545  0.04580097     0.44200
Cu237      Cu  0.00000337  0.33298467  0.00021454     0.42000
Cu238      Cu  0.99999924  0.40066441  0.95463579     0.43900
N239        N  0.99999372  0.43820262  0.01674228    -0.33400
N240        N  0.99999503  0.43815110  0.98355613    -0.27600
C241        C  0.99999409  0.46573290  0.97251063    -0.03700
C242        C  0.99999223  0.48400898  0.00004512     0.08500
C243        C  0.99999194  0.46582222  0.02766414     0.02300
H244        H  0.99999551  0.47197358  0.94634625     0.09900
H245        H  0.99999131  0.47215000  0.05380072     0.09000
N246        N  0.00000254  0.36025272  0.93163947    -0.34800
N247        N  0.00000397  0.33552540  0.94846831    -0.27000
C248        C  0.00000524  0.31329537  0.92664369    -0.02200
C249        C  0.00000457  0.32465320  0.89467133     0.06400
C250        C  0.00000277  0.35440380  0.89855786     0.04500
H251        H  0.00000612  0.29060852  0.93359800     0.09600
H252        H  0.00000124  0.37059084  0.87890210     0.08400
N253        N  0.00000981  0.66440469  0.94817365    -0.26000
N254        N  0.00000582  0.63968289  0.93132763    -0.33800
C255        C  0.00000523  0.64555591  0.89824952     0.02400
C256        C  0.00000902  0.67531063  0.89438985     0.08400
C257        C  0.00001186  0.68664580  0.92636759    -0.04700
H258        H  0.00000207  0.62938281  0.87857814     0.09100
H259        H  0.00001483  0.70932857  0.93334065     0.10300
Cu260      Cu  0.00000093  0.59923331  0.95427098     0.44200
Cu261      Cu  0.00001133  0.66700172  0.99991536     0.42000
Cu262      Cu  0.00000270  0.59928950  0.04543591     0.43900
N263        N  0.99999667  0.56179139  0.98329820    -0.33400
N264        N  0.99999717  0.56182724  0.01648438    -0.27600
C265        C  0.99999488  0.53424263  0.02751532    -0.03700
C266        C  0.99999296  0.51597715  0.99997299     0.08500
C267        C  0.99999409  0.53417457  0.97236181     0.02300
H268        H  0.99999541  0.52799307  0.05367693     0.09900
H269        H  0.99999378  0.52785565  0.94622233     0.09000
N270        N  0.00000893  0.63968075  0.06846366    -0.34800
N271        N  0.00001219  0.66441994  0.05165831    -0.27000
C272        C  0.00001464  0.68663327  0.07350436    -0.02200
C273        C  0.00001279  0.67525008  0.10546355     0.06400
C274        C  0.00000909  0.64550377  0.10155024     0.04500
H275        H  0.00001680  0.70932541  0.06657342     0.09600
H276        H  0.00000602  0.62930224  0.12119016     0.08400
O277        O  0.24999945  0.29309434  0.27919861    -0.71600
O278        O  0.25000200  0.24853733  0.19265806    -0.72600
O279        O  0.17543794  0.27102877  0.23639255    -0.61200
O280        O  0.32456336  0.27102987  0.23639297    -0.69600
O281        O  0.32453820  0.22899922  0.26371865    -0.69200
O282        O  0.17546217  0.22899820  0.26371837    -0.60500
O283        O  0.25000148  0.20694429  0.22086854    -0.73000
O284        O  0.24999899  0.25150631  0.30742047    -0.71700
Cu285      Cu  0.25000068  0.27235561  0.23509491     1.04600
Cu286      Cu  0.25000021  0.22767913  0.26498956     1.04300
C287        C  0.24999880  0.27921151  0.30686318     0.94600
C288        C  0.25000233  0.22083283  0.19320545     0.93700
C289        C  0.15211065  0.25001635  0.25007529     0.85800
C290        C  0.34789017  0.25001755  0.25007561     0.92100
O291        O  0.42545866  0.22899201  0.23648168    -0.71600
O292        O  0.07454163  0.22899102  0.23648192    -0.72600
O293        O  0.99999861  0.20693317  0.27933850    -0.61200
O294        O  0.00000164  0.25149558  0.19278295    -0.69600
O295        O  0.00000233  0.29308267  0.22100740    -0.69200
O296        O  0.99999903  0.24852758  0.30754527    -0.60500
O297        O  0.07455979  0.27102191  0.26380692    -0.73000
O298        O  0.42544150  0.27102288  0.26380675    -0.71700
Cu299      Cu  0.00000011  0.22766865  0.23521297     1.04600
Cu300      Cu  0.00000070  0.27234544  0.26510694     1.04300
C301        C  0.40211070  0.25001399  0.25012131     0.94600
C302        C  0.09789010  0.25001285  0.25012144     0.93700
C303        C  0.99999827  0.22082299  0.30700139     0.85800
C304        C  0.00000245  0.27920070  0.19334307     0.92100
C305        C  0.00000352  0.30875105  0.13663993    -0.12000
C306        C  0.00000332  0.29509564  0.16241986    -0.13500
C307        C  0.49999720  0.20494643  0.33794654    -0.12000
C308        C  0.49999675  0.19132955  0.36375884    -0.13500
C309        C  0.24999832  0.30875015  0.36357892    -0.12000
C310        C  0.24999823  0.29510365  0.33779108    -0.13500
C311        C  0.25000386  0.20495314  0.16226521    -0.12000
C312        C  0.25000519  0.19132737  0.13646082    -0.13500
C313        C  0.50000560  0.79516143  0.66220368    -0.12000
C314        C  0.50000445  0.80876685  0.63638661    -0.13500
C315        C  0.00000904  0.70500853  0.83772919    -0.12000
C316        C  0.00000920  0.69134129  0.86350434    -0.13500
C317        C  0.25000976  0.79520751  0.83776051    -0.12000
C318        C  0.25001025  0.80883247  0.86356460    -0.13500
C319        C  0.25000570  0.69140559  0.63644804    -0.12000
C320        C  0.25000616  0.70505336  0.66223606    -0.13500
C321        C  0.50000025  0.19123536  0.63664078    -0.12000
C322        C  0.00000017  0.20489010  0.66242114    -0.13500
C323        C  0.00000300  0.29503983  0.83794751    -0.12000
C324        C  0.00000392  0.30865751  0.86375926    -0.13500
C325        C  0.24999893  0.30865855  0.63646024    -0.12000
C326        C  0.24999977  0.29503237  0.66226442    -0.13500
C327        C  0.25000236  0.20488203  0.83779042    -0.12000
C328        C  0.25000304  0.19123602  0.86357859    -0.13500
C329        C  0.50000578  0.79497970  0.33772940    -0.12000
C330        C  0.50000512  0.80864724  0.36350426    -0.13500
C331        C  0.00001228  0.69122097  0.13638740    -0.12000
C332        C  0.00001154  0.70482625  0.16220453    -0.13500
C333        C  0.25001068  0.80858157  0.13644785    -0.12000
C334        C  0.25001093  0.79493389  0.16223601    -0.13500
C335        C  0.25000491  0.70478075  0.33776127    -0.12000
C336        C  0.25000374  0.69115577  0.36356538    -0.13500
O337        O  0.75000713  0.74837152  0.30737960    -0.71600
O338        O  0.75001038  0.79293237  0.22083358    -0.72600
O339        O  0.67546036  0.77087851  0.26366131    -0.61200
O340        O  0.82455726  0.77087757  0.26366143    -0.69600
O341        O  0.82456059  0.72884729  0.23633517    -0.69200
O342        O  0.67545612  0.72884826  0.23633500    -0.60500
O343        O  0.75000978  0.75134213  0.19261699    -0.73000
O344        O  0.75000679  0.70678147  0.27916276    -0.71700
Cu345      Cu  0.75000884  0.77219719  0.26494666     1.04600
Cu346      Cu  0.75000834  0.72752106  0.23505144     1.04300
C347        C  0.75000626  0.72066651  0.30682683     0.94600
C348        C  0.75001045  0.77904685  0.19316953     0.93700
C349        C  0.65211885  0.74986717  0.24999300     0.85800
C350        C  0.84789832  0.74986612  0.24999297     0.92100
O351        O  0.00000735  0.79295970  0.27913618    -0.71600
O352        O  0.50001026  0.74840355  0.19259945    -0.72600
O353        O  0.92545252  0.77089061  0.23631862    -0.61200
O354        O  0.57456520  0.77089156  0.23631912    -0.69600
O355        O  0.57455262  0.72886145  0.26364591    -0.69200
O356        O  0.92546397  0.72886047  0.26364535    -0.60500
O357        O  0.50000968  0.70680870  0.22080744    -0.73000
O358        O  0.00000686  0.75137437  0.30736221    -0.71700
Cu359      Cu  0.00000884  0.77221934  0.23503112     1.04600
Cu360      Cu  0.50000823  0.72754332  0.26492676     1.04300
C361        C  0.00000662  0.77908022  0.30680313     0.94600
C362        C  0.50001054  0.72069967  0.19314605     0.93700
C363        C  0.90211885  0.74987316  0.24998421     0.85800
C364        C  0.59789830  0.74987425  0.24998472     0.92100
O365        O  0.82453878  0.27098710  0.76371750    -0.71600
O366        O  0.67546318  0.27098625  0.76371824    -0.72600
O367        O  0.75000127  0.24847913  0.80741952    -0.61200
O368        O  0.75000083  0.29304101  0.72086767    -0.69600
O369        O  0.75000086  0.25144800  0.69265731    -0.69200
O370        O  0.75000159  0.20689098  0.77919800    -0.60500
O371        O  0.67543840  0.22895557  0.73639281    -0.73000
O372        O  0.82456426  0.22895644  0.73639203    -0.71700
Cu373      Cu  0.75000101  0.27230625  0.76498872     1.04600
Cu374      Cu  0.75000128  0.22762967  0.73509432     1.04300
C375        C  0.84789092  0.24996882  0.75007498     0.94600
C376        C  0.65211140  0.24996788  0.75007559     0.93700
C377        C  0.75000174  0.22077395  0.80686242     0.85800
C378        C  0.75000050  0.27915252  0.69320463     0.92100
O379        O  0.50000006  0.20690283  0.72100882    -0.71600
O380        O  0.50000097  0.25145828  0.80754672    -0.72600
O381        O  0.92544130  0.22896367  0.76380819    -0.61200
O382        O  0.57455970  0.22896280  0.76380787    -0.69600
O383        O  0.57454318  0.27099350  0.73648233    -0.69200
O384        O  0.92546042  0.27099436  0.73648262    -0.60500
O385        O  0.50000221  0.29305249  0.77933943    -0.73000
O386        O  0.50000130  0.24848990  0.69278420    -0.71700
Cu387      Cu  0.50000038  0.22764028  0.76510831     1.04600
Cu388      Cu  0.50000176  0.27231685  0.73521393     1.04300
C389        C  0.50000048  0.22078481  0.69334442     0.94600
C390        C  0.50000205  0.27916289  0.80700255     0.93700
C391        C  0.90211147  0.24997245  0.75012197     0.85800
C392        C  0.59789084  0.24997152  0.75012190     0.92100
O393        O  0.75000659  0.70705526  0.72083364    -0.71600
O394        O  0.75000780  0.75161667  0.80737917    -0.72600
O395        O  0.67545871  0.72911044  0.76366145    -0.61200
O396        O  0.82455559  0.72910939  0.76366094    -0.69600
O397        O  0.82456074  0.77113947  0.73633409    -0.69200
O398        O  0.67545627  0.77114041  0.73633436    -0.60500
O399        O  0.75000900  0.79320660  0.77916191    -0.73000
O400        O  0.75000787  0.74864531  0.69261647    -0.71700
Cu401      Cu  0.75000711  0.72779082  0.76494648     1.04600
Cu402      Cu  0.75000851  0.77246669  0.73505065     1.04300
C403        C  0.75000690  0.72094058  0.69316938     0.94600
C404        C  0.75000878  0.77932168  0.80682614     0.93700
C405        C  0.65211810  0.75012169  0.74999247     0.85800
C406        C  0.84789756  0.75012060  0.74999233     0.92100
O407        O  0.92546328  0.77112640  0.76364502    -0.71600
O408        O  0.57455198  0.77112747  0.76364424    -0.72600
O409        O  0.50000718  0.79317894  0.72080645    -0.61200
O410        O  0.50000823  0.74861373  0.80736147    -0.69600
O411        O  0.50000835  0.70702826  0.77913590    -0.69200
O412        O  0.00000740  0.75158407  0.69259868    -0.60500
O413        O  0.57456437  0.72909712  0.73631814    -0.73000
O414        O  0.92545167  0.72909604  0.73631891    -0.71700
Cu415      Cu  0.50000768  0.77244455  0.76492579     1.04600
Cu416      Cu  0.00000801  0.72776837  0.73503066     1.04300
C417        C  0.90211809  0.75011349  0.74998413     0.94600
C418        C  0.59789756  0.75011464  0.74998352     0.93700
C419        C  0.00000691  0.77928796  0.69314516     0.85800
C420        C  0.50000860  0.72090788  0.80680270     0.92100
N421        N  0.75000972  0.83561666  0.94829886    -0.26000
N422        N  0.75000624  0.86036336  0.93150675    -0.33800
C423        C  0.75000634  0.85455066  0.89841608     0.02400
C424        C  0.75001009  0.82480404  0.89448935     0.08400
C425        C  0.75001210  0.81341203  0.92644257    -0.04700
H426        H  0.75000354  0.87075850  0.87878310     0.09100
H427        H  0.75001456  0.79071759  0.93336348     0.10300
Cu428      Cu  0.75000102  0.90074898  0.95455991     0.44200
Cu429      Cu  0.75000993  0.83298664  0.00003869     0.42000
Cu430      Cu  0.74999835  0.90070441  0.04572536     0.43900
N431        N  0.74999581  0.93818035  0.98357041    -0.33400
N432        N  0.74999467  0.93817660  0.01675663    -0.27600
C433        C  0.74999233  0.96577958  0.02773938    -0.03700
C434        C  0.74999212  0.98401061  0.00015897     0.08500
C435        C  0.74999430  0.96577879  0.97258583     0.02300
H436        H  0.74999170  0.97206604  0.05388932     0.09900
H437        H  0.74999556  0.97206087  0.94643458     0.09000
N438        N  0.75000460  0.86024931  0.06864301    -0.34800
N439        N  0.75000916  0.83553509  0.05178365    -0.27000
C440        C  0.75001250  0.81328527  0.07357943    -0.02200
C441        C  0.75000973  0.82461155  0.10556318     0.06400
C442        C  0.75000477  0.85436592  0.10171698     0.04500
H443        H  0.75001630  0.79060480  0.06659633     0.09600
H444        H  0.75000135  0.87053266  0.12139533     0.08400
N445        N  0.75000482  0.16438385  0.94827962    -0.26000
N446        N  0.75000190  0.13964784  0.93146392    -0.33800
C447        C  0.75000107  0.14548768  0.89837906     0.02400
C448        C  0.75000360  0.17523773  0.89448335     0.08400
C449        C  0.75000587  0.18660472  0.92644635    -0.04700
H450        H  0.74999850  0.12929561  0.87872843     0.09100
H451        H  0.75000782  0.20929408  0.93339040     0.10300
Cu452      Cu  0.74999819  0.09923224  0.95446791     0.44200
Cu453      Cu  0.75000622  0.16700369  0.00001824     0.42000
Cu454      Cu  0.74999920  0.09929352  0.04563187     0.43900
N455        N  0.74999477  0.06179948  0.98349765    -0.33400
N456        N  0.74999489  0.06182217  0.01668381    -0.27600
C457        C  0.74999323  0.03422934  0.02769589    -0.03700
C458        C  0.74999211  0.01597874  0.00013718     0.08500
C459        C  0.74999311  0.03419096  0.97254231     0.02300
H460        H  0.74999363  0.02796381  0.05385250     0.09900
H461        H  0.74999327  0.02788802  0.94639778     0.09000
N462        N  0.75000403  0.13971847  0.06859857    -0.34800
N463        N  0.75000676  0.16444372  0.05176344    -0.27000
C464        C  0.75000825  0.18667694  0.07358261    -0.02200
C465        C  0.75000636  0.17532488  0.10555611     0.06400
C466        C  0.75000366  0.14557406  0.10167841     0.04500
H467        H  0.75000978  0.20936263  0.06662319     0.09600
H468        H  0.75000087  0.12939114  0.12133873     0.08400
N469        N  0.74999894  0.33560376  0.44827937    -0.26000
N470        N  0.75000320  0.36033953  0.43146320    -0.33800
C471        C  0.75000327  0.35449928  0.39837833     0.02400
C472        C  0.74999882  0.32474906  0.39448332     0.08400
C473        C  0.74999612  0.31338248  0.42644661    -0.04700
H474        H  0.75000664  0.37069096  0.37872751     0.09100
H475        H  0.74999279  0.29069341  0.43339114     0.10300
Cu476      Cu  0.75000950  0.40075531  0.45446721     0.44200
Cu477      Cu  0.74999841  0.33298449  0.50001810     0.42000
Cu478      Cu  0.75000622  0.40069386  0.54563249     0.43900
N479        N  0.75001344  0.43818785  0.48349746    -0.33400
N480        N  0.75001195  0.43816504  0.51668366    -0.27600
C481        C  0.75001375  0.46575784  0.52769564    -0.03700
C482        C  0.75001630  0.48400860  0.50013708     0.08500
C483        C  0.75001615  0.46579648  0.47254212     0.02300
H484        H  0.75001246  0.47202332  0.55385240     0.09900
H485        H  0.75001705  0.47209951  0.44639773     0.09000
N486        N  0.75000134  0.36026863  0.56859890    -0.34800
N487        N  0.74999845  0.33554361  0.55176332    -0.27000
C488        C  0.74999670  0.31331009  0.57358210    -0.02200
C489        C  0.74999857  0.32466155  0.60555581     0.06400
C490        C  0.75000150  0.35441237  0.60167852     0.04500
H491        H  0.74999477  0.29062440  0.56662221     0.09600
H492        H  0.75000407  0.37059509  0.62133939     0.08400
N493        N  0.75000328  0.66437144  0.44829959    -0.26000
N494        N  0.75000604  0.63962473  0.43150753    -0.33800
C495        C  0.75000612  0.64543757  0.39841698     0.02400
C496        C  0.75000319  0.67518414  0.39449011     0.08400
C497        C  0.75000139  0.68657605  0.42644328    -0.04700
H498        H  0.75000867  0.62922960  0.37878385     0.09100
H499        H  0.74999952  0.70927058  0.43336419     0.10300
Cu500      Cu  0.75001077  0.59923893  0.45456054     0.44200
Cu501      Cu  0.75000365  0.66700142  0.50003918     0.42000
Cu502      Cu  0.75001154  0.59928291  0.54572557     0.43900
N503        N  0.75001470  0.56180722  0.48357075    -0.33400
N504        N  0.75001465  0.56181072  0.51675695    -0.27600
C505        C  0.75001591  0.53420764  0.52773959    -0.03700
C506        C  0.75001672  0.51597679  0.50015902     0.08500
C507        C  0.75001604  0.53420886  0.47258602     0.02300
H508        H  0.75001561  0.52792101  0.55388943     0.09900
H509        H  0.75001563  0.52792702  0.44643470     0.09000
N510        N  0.75000785  0.63973802  0.56864327    -0.38000
N511        N  0.75000509  0.66445230  0.55178400    -0.27000
C512        C  0.75000369  0.68670212  0.57357976    -0.02200
C513        C  0.75000547  0.67537564  0.60556347     0.06400
C514        C  0.75000817  0.64562121  0.60171736     0.04500
H515        H  0.75000168  0.70938245  0.56659671     0.09600
H516        H  0.75001047  0.62945453  0.62139550     0.08400
N517        N  0.00000466  0.83558423  0.44817313    -0.26000
N518        N  0.00000739  0.86030593  0.43132692    -0.33800
C519        C  0.00000751  0.85443289  0.39824876     0.02400
C520        C  0.00000465  0.82467812  0.39438949     0.08400
C521        C  0.00000288  0.81334291  0.42636731    -0.04700
H522        H  0.00000995  0.87060581  0.37857739     0.09100
H523        H  0.00000091  0.79066046  0.43334044     0.10300
Cu524      Cu  0.00001152  0.90075549  0.45427007     0.44200
Cu525      Cu  0.00000449  0.83298714  0.49991484     0.42000
Cu526      Cu  0.00000861  0.90069885  0.54543554     0.43900
N527        N  0.00001469  0.93819709  0.48329761    -0.33400
N528        N  0.00001348  0.93816102  0.51648381    -0.27600
C529        C  0.00001475  0.96574552  0.52751484    -0.03700
C530        C  0.00001678  0.98401117  0.49997266     0.08500
C531        C  0.00001674  0.96581399  0.47236133     0.02300
H532        H  0.00001352  0.97199492  0.55367656     0.09900
H533        H  0.00001738  0.97213311  0.44622197     0.09000
N534        N  0.00000519  0.86030750  0.56846312    -0.34800
N535        N  0.00000371  0.83556839  0.55165766    -0.27000
C536        C  0.00000255  0.81335499  0.57350360    -0.02200
C537        C  0.00000345  0.82473791  0.60546283     0.06400
C538        C  0.00000507  0.85448418  0.60154954     0.04500
H539        H  0.00000174  0.79066272  0.56657252     0.09600
H540        H  0.00000663  0.87068574  0.62118974     0.08400
N541        N  0.00000109  0.16436561  0.55195228    -0.26000
N542        N  0.00000495  0.13963192  0.56877485    -0.33800
C543        C  0.00000503  0.14547901  0.60185793     0.02400
C544        C  0.00000107  0.17522946  0.60574393     0.08400
C545        C  0.99999865  0.18659011  0.57377948    -0.04700
H546        H  0.00000792  0.12929157  0.62151348     0.09100
H547        H  0.99999545  0.20927805  0.56682973     0.10300
Cu548      Cu  0.00000983  0.09920262  0.54580067     0.44200
Cu549      Cu  0.99999925  0.16700437  0.50021462     0.42000
Cu550      Cu  0.00000793  0.09932405  0.45463641     0.43900
N551        N  0.00001388  0.06178547  0.51674240    -0.33400
N552        N  0.00001338  0.06183719  0.48355626    -0.27600
C553        C  0.00001515  0.03425554  0.47251070    -0.03700
C554        C  0.00001670  0.01597928  0.50004499     0.08500
C555        C  0.00001585  0.03416582  0.52766414     0.02300
H556        H  0.00001439  0.02801502  0.44634610     0.09900
H557        H  0.00001586  0.02783785  0.55380069     0.09000
N558        N  0.00000163  0.13973558  0.43164013    -0.34800
N559        N  0.99999825  0.16446313  0.44846852    -0.27000
C560        C  0.99999547  0.18669278  0.42664341    -0.02200
C561        C  0.99999724  0.17533455  0.39467133     0.06400
C562        C  0.00000112  0.14558414  0.39855859     0.04500
H563        H  0.99999298  0.20937990  0.43359727     0.09600
H564        H  0.00000388  0.12939667  0.37890293     0.08400
N565        N  0.50000274  0.33562251  0.05195206    -0.26000
N566        N  0.49999998  0.36035595  0.06877505    -0.33800
C567        C  0.50000000  0.35450818  0.10185794     0.02400
C568        C  0.50000312  0.32475766  0.10574347     0.08400
C569        C  0.50000477  0.31339769  0.07377880    -0.04700
H570        H  0.49999770  0.37069541  0.12151394     0.09100
H571        H  0.50000698  0.29070973  0.06682850     0.10300
Cu572      Cu  0.49999602  0.40078545  0.04580097     0.44200
Cu573      Cu  0.50000316  0.33298467  0.00021454     0.42000
Cu574      Cu  0.49999907  0.40066440  0.95463578     0.43900
N575        N  0.49999361  0.43820262  0.01674228    -0.33400
N576        N  0.49999492  0.43815110  0.98355612    -0.27600
C577        C  0.49999421  0.46573289  0.97251067    -0.03700
C578        C  0.49999247  0.48400898  0.00004511     0.08500
C579        C  0.49999210  0.46582221  0.02766414     0.02300
H580        H  0.49999564  0.47197359  0.94634621     0.09900
H581        H  0.49999156  0.47215000  0.05380071     0.09000
N582        N  0.50000247  0.36025270  0.93163946    -0.34800
N583        N  0.50000403  0.33552538  0.94846832    -0.27000
C584        C  0.50000531  0.31329533  0.92664372    -0.02200
C585        C  0.50000452  0.32465315  0.89467134     0.06400
C586        C  0.50000279  0.35440373  0.89855787     0.04500
H587        H  0.50000621  0.29060849  0.93359804     0.09600
H588        H  0.50000141  0.37059078  0.87890202     0.08400
N589        N  0.50000964  0.66440469  0.94817365    -0.26000
N590        N  0.50000589  0.63968289  0.93132763    -0.33800
C591        C  0.50000542  0.64555591  0.89824952     0.02400
C592        C  0.50000913  0.67531063  0.89438984     0.08400
C593        C  0.50001172  0.68664580  0.92636759    -0.04700
H594        H  0.50000231  0.62938281  0.87857814     0.09100
H595        H  0.50001464  0.70932857  0.93334065     0.10300
Cu596      Cu  0.50000072  0.59923331  0.95427098     0.44200
Cu597      Cu  0.50001112  0.66700172  0.99991536     0.42000
Cu598      Cu  0.50000283  0.59928950  0.04543591     0.43900
N599        N  0.49999655  0.56179139  0.98329820    -0.33400
N600        N  0.49999708  0.56182724  0.01648438    -0.27600
C601        C  0.49999500  0.53424263  0.02751531    -0.03700
C602        C  0.49999321  0.51597715  0.99997299     0.08500
C603        C  0.49999421  0.53417457  0.97236181     0.02300
H604        H  0.49999557  0.52799307  0.05367693     0.09900
H605        H  0.49999390  0.52785565  0.94622233     0.09000
N606        N  0.50000888  0.63968075  0.06846366    -0.34800
N607        N  0.50001225  0.66441994  0.05165831    -0.27000
C608        C  0.50001475  0.68663327  0.07350436    -0.02200
C609        C  0.50001273  0.67525008  0.10546355     0.06400
C610        C  0.50000907  0.64550377  0.10155024     0.04500
H611        H  0.50001701  0.70932541  0.06657342     0.09600
H612        H  0.50000609  0.62930224  0.12119016     0.08400
O613        O  0.74999934  0.29309434  0.27919860    -0.71600
O614        O  0.75000205  0.24853733  0.19265805    -0.72600
O615        O  0.67543794  0.27102876  0.23639255    -0.61200
O616        O  0.82456334  0.27102984  0.23639284    -0.69600
O617        O  0.82453807  0.22899927  0.26371865    -0.69200
O618        O  0.67546207  0.22899818  0.26371836    -0.60500
O619        O  0.75000154  0.20694429  0.22086854    -0.73000
O620        O  0.74999883  0.25150631  0.30742047    -0.71700
Cu621      Cu  0.75000062  0.27235561  0.23509489     1.04600
Cu622      Cu  0.75000008  0.22767913  0.26498956     1.04300
C623        C  0.74999878  0.27921151  0.30686318     0.94600
C624        C  0.75000240  0.22083283  0.19320544     0.93700
C625        C  0.65211062  0.25001636  0.25007529     0.85800
C626        C  0.84789011  0.25001754  0.25007555     0.92100
O627        O  0.92545865  0.22899201  0.23648170    -0.71600
O628        O  0.57454172  0.22899102  0.23648193    -0.72600
O629        O  0.49999859  0.20693317  0.27933850    -0.61200
O630        O  0.50000183  0.25149558  0.19278295    -0.69600
O631        O  0.50000217  0.29308267  0.22100740    -0.69200
O632        O  0.49999895  0.24852758  0.30754527    -0.60500
O633        O  0.57455979  0.27102192  0.26380692    -0.73000
O634        O  0.92544149  0.27102288  0.26380675    -0.71700
Cu635      Cu  0.50000018  0.22766865  0.23521297     1.04600
Cu636      Cu  0.50000063  0.27234544  0.26510694     1.04300
C637        C  0.90211068  0.25001398  0.25012132     0.94600
C638        C  0.59789012  0.25001288  0.25012142     0.93700
C639        C  0.49999825  0.22082299  0.30700139     0.85800
C640        C  0.50000245  0.27920070  0.19334307     0.92100
C641        C  0.50000335  0.30875105  0.13663993    -0.12000
C642        C  0.50000317  0.29509564  0.16241986    -0.13500
C643        C  0.99999729  0.20494643  0.33794654    -0.12000
C644        C  0.99999692  0.19132955  0.36375883    -0.13500
C645        C  0.74999824  0.30875015  0.36357892    -0.12000
C646        C  0.74999831  0.29510365  0.33779108    -0.13500
C647        C  0.75000372  0.20495313  0.16226521    -0.12000
C648        C  0.75000502  0.19132736  0.13646081    -0.13500
C649        C  0.00000566  0.79516143  0.66220368    -0.12000
C650        C  0.00000442  0.80876685  0.63638661    -0.13500
C651        C  0.50000919  0.70500856  0.83772920    -0.12000
C652        C  0.50000936  0.69134130  0.86350433    -0.13500
C653        C  0.75000961  0.79520751  0.83776051    -0.12000
C654        C  0.75001009  0.80883247  0.86356460    -0.13500
C655        C  0.75000549  0.69140559  0.63644804    -0.12000
C656        C  0.75000602  0.70505336  0.66223606    -0.13500
C657        C  0.00000037  0.19123536  0.63664079    -0.12000
C658        C  0.50000019  0.20489009  0.66242113    -0.13500
C659        C  0.50000318  0.29503983  0.83794750    -0.12000
C660        C  0.50000404  0.30865748  0.86375926    -0.13500
C661        C  0.74999900  0.30865855  0.63646024    -0.12000
C662        C  0.74999963  0.29503237  0.66226442    -0.13500
C663        C  0.75000253  0.20488203  0.83779042    -0.12000
C664        C  0.75000314  0.19123602  0.86357859    -0.13500
C665        C  0.00000561  0.79497970  0.33772940    -0.12000
C666        C  0.00000497  0.80864725  0.36350425    -0.13500
C667        C  0.50001239  0.69122098  0.13638741    -0.12000
C668        C  0.50001172  0.70482628  0.16220454    -0.13500
C669        C  0.75001080  0.80858157  0.13644785    -0.12000
C670        C  0.75001102  0.79493389  0.16223601    -0.13500
C671        C  0.75000477  0.70478075  0.33776127    -0.12000
C672        C  0.75000382  0.69115577  0.36356538    -0.13500
loop_ 
_geom_bond_atom_site_label_1 
_geom_bond_atom_site_label_2 
_geom_bond_distance 
_geom_bond_site_symmetry_2 
_ccdc_geom_bond_type 
O1           Cu9   2.017       .  S
O1           C11   1.278       .  A
O2           Cu9   2.001       .  S
O2           C12   1.275       .  A
O3           Cu9   2.009       .  S
O3           C13   1.277       .  A
O4           Cu9   2.009       .  S
O4           C14   1.277       .  A
O5          Cu10   2.009       .  S
O5           C14   1.277       .  A
O6          Cu10   2.009       .  S
O6           C13   1.277       .  A
O7          Cu10   2.017       .  S
O7           C12   1.278       .  A
O8          Cu10   2.001       .  S
O8           C11   1.275       .  A
Cu9         Cu10   2.380       .  S
C11         C335   1.434       .  S
C12         C334   1.434       .  S
C13          C28   1.460       .  S
C14          C27   1.460       .  S
O15         Cu23   2.001       .  S
O15          C25   1.275       .  A
O16        Cu359   2.017       .  S
O16          C26   1.277       .  A
O17         Cu23   2.009       .  S
O17          C27   1.277       .  A
O18        Cu359   2.009       .  S
O18          C28   1.277       .  A
O19         Cu24   2.009       .  S
O19          C28   1.277       .  A
O20        Cu360   2.009       .  S
O20          C27   1.277       .  A
O21         Cu24   2.002       .  S
O21          C26   1.275       .  A
O22        Cu360   2.017       .  S
O22          C25   1.278       .  A
Cu23        O352   2.017       .  S
Cu23        O354   2.009       .  S
Cu23       Cu360   2.380       .  S
Cu24        O356   2.009   1_455  S
Cu24        O358   2.017       .  S
Cu24       Cu359   2.380       .  S
C25         C329   1.434       .  S
C26         C332   1.434       .  S
O29         Cu37   2.009       .  S
O29          C39   1.277       .  A
O30         Cu37   2.009       .  S
O30          C40   1.277       .  A
O31         Cu37   2.017       .  S
O31          C41   1.278       .  A
O32         Cu37   2.002       .  S
O32          C42   1.275       .  A
O33         Cu38   2.017       .  S
O33          C42   1.278       .  A
O34         Cu38   2.001       .  S
O34          C41   1.275       .  A
O35         Cu38   2.009       .  S
O35          C40   1.277       .  A
O36         Cu38   2.009       .  S
O36          C39   1.277       .  A
Cu37        Cu38   2.380       .  S
C39          C55   1.460       .  S
C40          C56   1.460       .  S
C41         C327   1.434       .  S
C42         C326   1.434       .  S
O43         Cu51   2.001       .  S
O43          C53   1.275       .  A
O44         Cu51   2.017       .  S
O44          C54   1.278       .  A
O45        Cu387   2.009       .  S
O45          C55   1.277       .  A
O46         Cu51   2.009       .  S
O46          C56   1.277       .  A
O47         Cu52   2.009       .  S
O47          C56   1.277       .  A
O48        Cu388   2.009       .  S
O48          C55   1.277       .  A
O49         Cu52   2.002       .  S
O49          C54   1.275       .  A
O50         Cu52   2.017       .  S
O50          C53   1.278       .  A
Cu51        O381   2.009   1_455  S
Cu51        Cu52   2.380       .  S
Cu52        O384   2.009   1_455  S
C53         C322   1.434       .  S
C54         C323   1.434       .  S
O57         Cu65   2.001       .  S
O57          C67   1.275       .  A
O58         Cu65   2.017       .  S
O58          C68   1.278       .  A
O59         Cu65   2.009       .  S
O59          C69   1.277       .  A
O60         Cu65   2.009       .  S
O60          C70   1.277       .  A
O61         Cu66   2.009       .  S
O61          C70   1.277       .  A
O62         Cu66   2.009       .  S
O62          C69   1.277       .  A
O63         Cu66   2.001       .  S
O63          C68   1.275       .  A
O64         Cu66   2.017       .  S
O64          C67   1.278       .  A
Cu65        Cu66   2.380       .  S
C67         C320   1.434       .  S
C68         C317   1.434       .  S
C69          C82   1.460       .  S
C70          C81   1.460       .  S
O71        Cu415   2.009       .  S
O71          C81   1.277       .  A
O72         Cu79   2.009       .  S
O72          C82   1.277       .  A
O73         Cu79   2.002       .  S
O73         C419   1.275       .  A
O74         Cu79   2.017       .  S
O74          C84   1.278       .  A
O75        Cu416   2.001       .  S
O75          C84   1.275       .  A
O76         Cu80   2.017       .  S
O76          C83   1.277       .  A
O77        Cu416   2.009       .  S
O77          C82   1.277       .  A
O78         Cu80   2.009       .  S
O78          C81   1.277       .  A
Cu79        O407   2.009   1_455  S
Cu79       Cu416   2.380       .  S
Cu80        O411   2.001       .  S
Cu80        O413   2.009       .  S
Cu80       Cu415   2.380       .  S
C83         O409   1.275       .  A
C83         C313   1.434       .  S
C84         C315   1.434       .  S
N85          N86   1.323       .  A
N85          C89   1.344       .  A
N85         Cu93   2.066   1_556  S
N86          C87   1.346       .  A
N86         Cu92   2.076       .  S
C87          C88   1.380       .  A
C87          H90   1.082       .  S
C88         C318   1.436       .  S
C88          C89   1.378       .  A
C89          H91   1.082       .  S
Cu92         N95   2.077       .  S
Cu93        N103   2.066       .  S
Cu94         N96   2.078       .  S
Cu94        N102   2.077       .  S
N95          N96   1.323   1_556  A
N95          C99   1.346       .  A
N96          C97   1.346       .  A
C97          C98   1.384       .  A
C97         H100   1.082       .  S
C98         C122   1.474   1_565  S
C98          C99   1.384   1_554  A
C99         H101   1.082       .  S
N102        N103   1.323       .  A
N102        C106   1.346       .  A
N103        C104   1.344       .  A
C104        C105   1.378       .  A
C104        H107   1.082       .  S
C105        C333   1.436       .  S
C105        C106   1.380       .  A
C106        H108   1.082       .  S
N109        N110   1.323       .  A
N109        C113   1.344       .  A
N109       Cu117   2.066   1_556  S
N110        C111   1.346       .  A
N110       Cu116   2.077       .  S
C111        C112   1.380       .  A
C111        H114   1.082       .  S
C112        C328   1.436       .  S
C112        C113   1.378       .  A
C113        H115   1.082       .  S
Cu116       N119   2.078       .  S
Cu117       N127   2.066       .  S
Cu118       N120   2.078       .  S
Cu118       N126   2.076       .  S
N119        N120   1.323   1_556  A
N119        C123   1.346       .  A
N120        C121   1.346       .  A
C121        C122   1.384       .  A
C121        H124   1.082       .  S
C122        C123   1.384   1_554  A
C123        H125   1.082       .  S
N126        N127   1.323       .  A
N126        C130   1.346       .  A
N127        C128   1.344       .  A
C128        C129   1.378       .  A
C128        H131   1.082       .  S
C129        C312   1.436       .  S
C129        C130   1.380       .  A
C130        H132   1.082       .  S
N133        N134   1.323       .  A
N133        C137   1.344       .  A
N133       Cu141   2.066       .  S
N134        C135   1.346       .  A
N134       Cu140   2.077       .  S
C135        C136   1.380       .  A
C135        H138   1.082       .  S
C136        C309   1.436       .  S
C136        C137   1.378       .  A
C137        H139   1.082       .  S
Cu140       N143   2.078       .  S
Cu141       N151   2.066       .  S
Cu142       N144   2.078       .  S
Cu142       N150   2.077       .  S
N143        N144   1.323       .  A
N143        C147   1.346       .  A
N144        C145   1.346       .  A
C145        C146   1.384       .  A
C145        H148   1.082       .  S
C146        C170   1.474       .  S
C146        C147   1.384       .  A
C147        H149   1.082       .  S
N150        N151   1.323       .  A
N150        C154   1.346       .  A
N151        C152   1.344       .  A
C152        C153   1.378       .  A
C152        H155   1.082       .  S
C153        C325   1.436       .  S
C153        C154   1.380       .  A
C154        H156   1.082       .  S
N157        N158   1.323       .  A
N157        C161   1.344       .  A
N157       Cu165   2.066       .  S
N158        C159   1.346       .  A
N158       Cu164   2.076       .  S
C159        C160   1.380       .  A
C159        H162   1.082       .  S
C160        C336   1.436       .  S
C160        C161   1.378       .  A
C161        H163   1.082       .  S
Cu164       N167   2.077       .  S
Cu165       N175   2.066       .  S
Cu166       N168   2.078       .  S
Cu166       N174   2.077       .  S
N167        N168   1.323       .  A
N167        C171   1.346       .  A
N168        C169   1.346       .  A
C169        C170   1.384       .  A
C169        H172   1.082       .  S
C170        C171   1.384       .  A
C171        H173   1.082       .  S
N174        N175   1.323       .  A
N174        C178   1.346       .  A
N175        C176   1.344       .  A
C176        C177   1.378       .  A
C176        H179   1.082       .  S
C177        C319   1.436       .  S
C177        C178   1.380       .  A
C178        H180   1.082       .  S
N181        N182   1.323       .  A
N181        C185   1.344       .  A
N181       Cu189   2.066       .  S
N182        C183   1.346       .  A
N182       Cu188   2.077       .  S
C183        C184   1.380       .  A
C183        H186   1.082       .  S
C184        C330   1.436       .  S
C184        C185   1.378       .  A
C185        H187   1.082       .  S
Cu188       N191   2.078       .  S
Cu189       N199   2.066       .  S
Cu190       N192   2.077       .  S
Cu190       N198   2.076       .  S
N191        N192   1.323       .  A
N191        C195   1.346       .  A
N192        C193   1.346       .  A
C193        C194   1.384       .  A
C193        H196   1.082       .  S
C194        C218   1.474   1_565  S
C194        C195   1.384       .  A
C195        H197   1.082       .  S
N198        N199   1.323       .  A
N198        C202   1.346       .  A
N199        C200   1.344       .  A
C200        C201   1.378       .  A
C200        H203   1.082       .  S
C201        C314   1.436       .  S
C201        C202   1.380       .  A
C202        H204   1.082       .  S
N205        N206   1.323       .  A
N205        C209   1.344       .  A
N205       Cu213   2.066       .  S
N206        C207   1.346       .  A
N206       Cu212   2.077       .  S
C207        C208   1.380       .  A
C207        H210   1.082       .  S
C208        C321   1.436       .  S
C208        C209   1.378       .  A
C209        H211   1.082       .  S
Cu212       N215   2.078       .  S
Cu213       N223   2.066       .  S
Cu214       N216   2.077       .  S
Cu214       N222   2.076       .  S
N215        N216   1.323       .  A
N215        C219   1.346       .  A
N216        C217   1.346       .  A
C217        C218   1.384       .  A
C217        H220   1.082       .  S
C218        C219   1.384       .  A
C219        H221   1.082       .  S
N222        N223   1.323       .  A
N222        C226   1.346       .  A
N223        C224   1.344       .  A
C224        C225   1.378       .  A
C224        H227   1.082       .  S
C225        C308   1.436       .  S
C225        C226   1.380       .  A
C226        H228   1.082       .  S
N229        N230   1.323   1_455  A
N229        C233   1.344       .  A
N229       Cu237   2.066       .  S
N230        C231   1.346   1_655  A
N230       Cu236   2.077       .  S
C231        C232   1.380       .  A
C231        H234   1.082   1_455  S
C232        C305   1.436       .  S
C232        C233   1.378       .  A
C233        H235   1.082       .  S
Cu236       N239   2.078       .  S
Cu237       N247   2.066   1_554  S
Cu238       N240   2.078       .  S
Cu238       N246   2.076   1_655  S
N239        N240   1.323   1_554  A
N239        C243   1.346       .  A
N240        C241   1.346       .  A
C241        C242   1.384   1_556  A
C241        H244   1.082       .  S
C242        C266   1.474   1_554  S
C242        C243   1.384       .  A
C243        H245   1.082       .  S
N246        N247   1.323       .  A
N246        C250   1.346       .  A
N247        C248   1.344       .  A
C248        C249   1.378       .  A
C248        H251   1.082       .  S
C249        C324   1.436       .  S
C249        C250   1.380       .  A
C250        H252   1.082       .  S
N253        N254   1.323       .  A
N253        C257   1.344       .  A
N253       Cu261   2.066       .  S
N254        C255   1.346       .  A
N254       Cu260   2.077       .  S
C255        C256   1.380       .  A
C255        H258   1.082       .  S
C256        C316   1.436       .  S
C256        C257   1.378       .  A
C257        H259   1.082       .  S
Cu260       N263   2.078   1_455  S
Cu261       N271   2.066   1_556  S
Cu262       N264   2.077   1_455  S
Cu262       N270   2.076       .  S
N263        N264   1.323   1_556  A
N263        C267   1.346       .  A
N264        C265   1.346       .  A
C265        C266   1.384   1_554  A
C265        H268   1.082       .  S
C266        C267   1.384       .  A
C267        H269   1.082       .  S
N270        N271   1.323       .  A
N270        C274   1.346       .  A
N271        C272   1.344       .  A
C272        C273   1.378       .  A
C272        H275   1.082       .  S
C273        C331   1.436       .  S
C273        C274   1.380       .  A
C274        H276   1.082       .  S
O277       Cu285   2.001       .  S
O277        C287   1.275       .  A
O278       Cu285   2.017       .  S
O278        C288   1.278       .  A
O279       Cu285   2.009       .  S
O279        C289   1.277       .  A
O280       Cu285   2.009       .  S
O280        C290   1.277       .  A
O281       Cu286   2.009       .  S
O281        C290   1.277       .  A
O282       Cu286   2.009       .  S
O282        C289   1.277       .  A
O283       Cu286   2.002       .  S
O283        C288   1.275       .  A
O284       Cu286   2.017       .  S
O284        C287   1.278       .  A
Cu285      Cu286   2.380       .  S
C287        C310   1.434       .  S
C288        C311   1.434       .  S
C289        C302   1.460       .  S
C290        C301   1.460       .  S
O291       Cu635   2.009       .  S
O291        C301   1.277       .  A
O292       Cu299   2.009       .  S
O292        C302   1.277       .  A
O293       Cu299   2.002   1_655  S
O293        C303   1.275       .  A
O294       Cu299   2.017       .  S
O294        C304   1.278       .  A
O295       Cu300   2.001       .  S
O295        C304   1.275       .  A
O296       Cu300   2.017   1_655  S
O296        C303   1.278       .  A
O297       Cu300   2.009       .  S
O297        C302   1.277       .  A
O298       Cu636   2.009       .  S
O298        C301   1.277       .  A
Cu299       O627   2.009   1_455  S
Cu299      Cu300   2.380       .  S
Cu300       O634   2.009   1_455  S
C303        C643   1.434       .  S
C304        C306   1.434       .  S
C305        C306   1.205       .  T
C307        C639   1.434       .  S
C307        C308   1.205       .  T
C309        C310   1.205       .  T
C311        C312   1.205       .  T
C313        C314   1.205       .  T
C315        C316   1.205       .  T
C317        C318   1.205       .  T
C319        C320   1.205       .  T
C321        C658   1.205       .  T
C322        C657   1.205       .  T
C323        C324   1.205       .  T
C325        C326   1.205       .  T
C327        C328   1.205       .  T
C329        C330   1.205       .  T
C331        C332   1.205       .  T
C333        C334   1.205       .  T
C335        C336   1.205       .  T
O337       Cu345   2.017       .  S
O337        C347   1.278       .  A
O338       Cu345   2.001       .  S
O338        C348   1.275       .  A
O339       Cu345   2.009       .  S
O339        C349   1.277       .  A
O340       Cu345   2.009       .  S
O340        C350   1.277       .  A
O341       Cu346   2.009       .  S
O341        C350   1.277       .  A
O342       Cu346   2.009       .  S
O342        C349   1.277       .  A
O343       Cu346   2.017       .  S
O343        C348   1.278       .  A
O344       Cu346   2.001       .  S
O344        C347   1.275       .  A
Cu345      Cu346   2.380       .  S
C347        C671   1.434       .  S
C348        C670   1.434       .  S
C349        C364   1.460       .  S
C350        C363   1.460       .  S
O351       Cu359   2.001       .  S
O351        C361   1.275       .  A
O352        C362   1.277       .  A
O353       Cu359   2.009   1_655  S
O353        C363   1.277       .  A
O354        C364   1.277       .  A
O355       Cu360   2.009       .  S
O355        C364   1.277       .  A
O356        C363   1.277       .  A
O357       Cu360   2.002       .  S
O357        C362   1.275       .  A
O358        C361   1.278       .  A
C361        C665   1.434       .  S
C362        C668   1.434       .  S
O365       Cu373   2.009       .  S
O365        C375   1.277       .  A
O366       Cu373   2.009       .  S
O366        C376   1.277       .  A
O367       Cu373   2.017       .  S
O367        C377   1.278       .  A
O368       Cu373   2.002       .  S
O368        C378   1.275       .  A
O369       Cu374   2.017       .  S
O369        C378   1.278       .  A
O370       Cu374   2.001       .  S
O370        C377   1.275       .  A
O371       Cu374   2.009       .  S
O371        C376   1.277       .  A
O372       Cu374   2.009       .  S
O372        C375   1.277       .  A
Cu373      Cu374   2.380       .  S
C375        C391   1.460       .  S
C376        C392   1.460       .  S
C377        C663   1.434       .  S
C378        C662   1.434       .  S
O379       Cu387   2.001       .  S
O379        C389   1.275       .  A
O380       Cu387   2.017       .  S
O380        C390   1.278       .  A
O381        C391   1.277       .  A
O382       Cu387   2.009       .  S
O382        C392   1.277       .  A
O383       Cu388   2.009       .  S
O383        C392   1.277       .  A
O384        C391   1.277       .  A
O385       Cu388   2.002       .  S
O385        C390   1.275       .  A
O386       Cu388   2.017       .  S
O386        C389   1.278       .  A
Cu387      Cu388   2.380       .  S
C389        C658   1.434       .  S
C390        C659   1.434       .  S
O393       Cu401   2.001       .  S
O393        C403   1.275       .  A
O394       Cu401   2.017       .  S
O394        C404   1.278       .  A
O395       Cu401   2.009       .  S
O395        C405   1.277       .  A
O396       Cu401   2.009       .  S
O396        C406   1.277       .  A
O397       Cu402   2.009       .  S
O397        C406   1.277       .  A
O398       Cu402   2.009       .  S
O398        C405   1.277       .  A
O399       Cu402   2.001       .  S
O399        C404   1.275       .  A
O400       Cu402   2.017       .  S
O400        C403   1.278       .  A
Cu401      Cu402   2.380       .  S
C403        C656   1.434       .  S
C404        C653   1.434       .  S
C405        C418   1.460       .  S
C406        C417   1.460       .  S
O407        C417   1.277       .  A
O408       Cu415   2.009       .  S
O408        C418   1.277       .  A
O409       Cu415   2.002       .  S
O410       Cu415   2.017       .  S
O410        C420   1.278       .  A
O411        C420   1.275       .  A
O412       Cu416   2.017       .  S
O412        C419   1.277       .  A
O413        C418   1.277       .  A
O414       Cu416   2.009   1_655  S
O414        C417   1.277       .  A
C419        C649   1.434       .  S
C420        C651   1.434       .  S
N421        N422   1.323       .  A
N421        C425   1.344       .  A
N421       Cu429   2.066   1_556  S
N422        C423   1.346       .  A
N422       Cu428   2.076       .  S
C423        C424   1.380       .  A
C423        H426   1.082       .  S
C424        C654   1.436       .  S
C424        C425   1.378       .  A
C425        H427   1.082       .  S
Cu428       N431   2.077       .  S
Cu429       N439   2.066       .  S
Cu430       N432   2.078       .  S
Cu430       N438   2.077       .  S
N431        N432   1.323   1_556  A
N431        C435   1.346       .  A
N432        C433   1.346       .  A
C433        C434   1.384       .  A
C433        H436   1.082       .  S
C434        C458   1.474   1_565  S
C434        C435   1.384   1_554  A
C435        H437   1.082       .  S
N438        N439   1.323       .  A
N438        C442   1.346       .  A
N439        C440   1.344       .  A
C440        C441   1.378       .  A
C440        H443   1.082       .  S
C441        C669   1.436       .  S
C441        C442   1.380       .  A
C442        H444   1.082       .  S
N445        N446   1.323       .  A
N445        C449   1.344       .  A
N445       Cu453   2.066   1_556  S
N446        C447   1.346       .  A
N446       Cu452   2.077       .  S
C447        C448   1.380       .  A
C447        H450   1.082       .  S
C448        C664   1.436       .  S
C448        C449   1.378       .  A
C449        H451   1.082       .  S
Cu452       N455   2.078       .  S
Cu453       N463   2.066       .  S
Cu454       N456   2.078       .  S
Cu454       N462   2.076       .  S
N455        N456   1.323   1_556  A
N455        C459   1.346       .  A
N456        C457   1.346       .  A
C457        C458   1.384       .  A
C457        H460   1.082       .  S
C458        C459   1.384   1_554  A
C459        H461   1.082       .  S
N462        N463   1.323       .  A
N462        C466   1.346       .  A
N463        C464   1.344       .  A
C464        C465   1.378       .  A
C464        H467   1.082       .  S
C465        C648   1.436       .  S
C465        C466   1.380       .  A
C466        H468   1.082       .  S
N469        N470   1.323       .  A
N469        C473   1.344       .  A
N469       Cu477   2.066       .  S
N470        C471   1.346       .  A
N470       Cu476   2.077       .  S
C471        C472   1.380       .  A
C471        H474   1.082       .  S
C472        C645   1.436       .  S
C472        C473   1.378       .  A
C473        H475   1.082       .  S
Cu476       N479   2.078       .  S
Cu477       N487   2.066       .  S
Cu478       N480   2.078       .  S
Cu478       N486   2.077       .  S
N479        N480   1.323       .  A
N479        C483   1.346       .  A
N480        C481   1.346       .  A
C481        C482   1.384       .  A
C481        H484   1.082       .  S
C482        C506   1.474       .  S
C482        C483   1.384       .  A
C483        H485   1.082       .  S
N486        N487   1.323       .  A
N486        C490   1.346       .  A
N487        C488   1.344       .  A
C488        C489   1.378       .  A
C488        H491   1.082       .  S
C489        C661   1.436       .  S
C489        C490   1.380       .  A
C490        H492   1.082       .  S
N493        N494   1.323       .  A
N493        C497   1.344       .  A
N493       Cu501   2.066       .  S
N494        C495   1.346       .  A
N494       Cu500   2.076       .  S
C495        C496   1.380       .  A
C495        H498   1.082       .  S
C496        C672   1.436       .  S
C496        C497   1.378       .  A
C497        H499   1.082       .  S
Cu500       N503   2.077       .  S
Cu501       N511   2.066       .  S
Cu502       N504   2.078       .  S
Cu502       N510   2.077       .  S
N503        N504   1.323       .  A
N503        C507   1.346       .  A
N504        C505   1.346       .  A
C505        C506   1.384       .  A
C505        H508   1.082       .  S
C506        C507   1.384       .  A
C507        H509   1.082       .  S
N510        N511   1.323       .  A
N510        C514   1.346       .  A
N511        C512   1.344       .  A
C512        C513   1.378       .  A
C512        H515   1.082       .  S
C513        C655   1.436       .  S
C513        C514   1.380       .  A
C514        H516   1.082       .  S
N517        N518   1.323       .  A
N517        C521   1.344       .  A
N517       Cu525   2.066       .  S
N518        C519   1.346       .  A
N518       Cu524   2.077       .  S
C519        C520   1.380       .  A
C519        H522   1.082       .  S
C520        C666   1.436       .  S
C520        C521   1.378       .  A
C521        H523   1.082       .  S
Cu524       N527   2.078       .  S
Cu525       N535   2.066       .  S
Cu526       N528   2.077       .  S
Cu526       N534   2.076       .  S
N527        N528   1.323       .  A
N527        C531   1.346       .  A
N528        C529   1.346       .  A
C529        C530   1.384       .  A
C529        H532   1.082       .  S
C530        C554   1.474   1_565  S
C530        C531   1.384       .  A
C531        H533   1.082       .  S
N534        N535   1.323       .  A
N534        C538   1.346       .  A
N535        C536   1.344       .  A
C536        C537   1.378       .  A
C536        H539   1.082       .  S
C537        C650   1.436       .  S
C537        C538   1.380       .  A
C538        H540   1.082       .  S
N541        N542   1.323       .  A
N541        C545   1.344   1_455  A
N541       Cu549   2.066   1_455  S
N542        C543   1.346       .  A
N542       Cu548   2.077       .  S
C543        C544   1.380       .  A
C543        H546   1.082       .  S
C544        C657   1.436       .  S
C544        C545   1.378   1_455  A
C545        H547   1.082       .  S
Cu548       N551   2.078       .  S
Cu549       N559   2.066       .  S
Cu550       N552   2.077       .  S
Cu550       N558   2.076       .  S
N551        N552   1.323       .  A
N551        C555   1.346       .  A
N552        C553   1.346       .  A
C553        C554   1.384       .  A
C553        H556   1.082       .  S
C554        C555   1.384       .  A
C555        H557   1.082       .  S
N558        N559   1.323   1_455  A
N558        C562   1.346       .  A
N559        C560   1.344       .  A
C560        C561   1.378       .  A
C560        H563   1.082       .  S
C561        C644   1.436       .  S
C561        C562   1.380   1_655  A
C562        H564   1.082       .  S
N565        N566   1.323       .  A
N565        C569   1.344       .  A
N565       Cu573   2.066       .  S
N566        C567   1.346       .  A
N566       Cu572   2.077       .  S
C567        C568   1.380       .  A
C567        H570   1.082       .  S
C568        C641   1.436       .  S
C568        C569   1.378       .  A
C569        H571   1.082       .  S
Cu572       N575   2.078       .  S
Cu573       N583   2.066   1_554  S
Cu574       N576   2.078       .  S
Cu574       N582   2.076       .  S
N575        N576   1.323   1_554  A
N575        C579   1.346       .  A
N576        C577   1.346       .  A
C577        C578   1.384   1_556  A
C577        H580   1.082       .  S
C578        C602   1.474   1_554  S
C578        C579   1.384       .  A
C579        H581   1.082       .  S
N582        N583   1.323       .  A
N582        C586   1.346       .  A
N583        C584   1.344       .  A
C584        C585   1.378       .  A
C584        H587   1.082       .  S
C585        C660   1.436       .  S
C585        C586   1.380       .  A
C586        H588   1.082       .  S
N589        N590   1.323       .  A
N589        C593   1.344       .  A
N589       Cu597   2.066       .  S
N590        C591   1.346       .  A
N590       Cu596   2.077       .  S
C591        C592   1.380       .  A
C591        H594   1.082       .  S
C592        C652   1.436       .  S
C592        C593   1.378       .  A
C593        H595   1.082       .  S
Cu596       N599   2.078       .  S
Cu597       N607   2.066   1_556  S
Cu598       N600   2.077       .  S
Cu598       N606   2.076       .  S
N599        N600   1.323   1_556  A
N599        C603   1.346       .  A
N600        C601   1.346       .  A
C601        C602   1.384   1_554  A
C601        H604   1.082       .  S
C602        C603   1.384       .  A
C603        H605   1.082       .  S
N606        N607   1.323       .  A
N606        C610   1.346       .  A
N607        C608   1.344       .  A
C608        C609   1.378       .  A
C608        H611   1.082       .  S
C609        C667   1.436       .  S
C609        C610   1.380       .  A
C610        H612   1.082       .  S
O613       Cu621   2.001       .  S
O613        C623   1.275       .  A
O614       Cu621   2.017       .  S
O614        C624   1.278       .  A
O615       Cu621   2.009       .  S
O615        C625   1.277       .  A
O616       Cu621   2.009       .  S
O616        C626   1.277       .  A
O617       Cu622   2.009       .  S
O617        C626   1.277       .  A
O618       Cu622   2.009       .  S
O618        C625   1.277       .  A
O619       Cu622   2.002       .  S
O619        C624   1.275       .  A
O620       Cu622   2.017       .  S
O620        C623   1.278       .  A
Cu621      Cu622   2.380       .  S
C623        C646   1.434       .  S
C624        C647   1.434       .  S
C625        C638   1.460       .  S
C626        C637   1.460       .  S
O627        C637   1.277       .  A
O628       Cu635   2.009       .  S
O628        C638   1.277       .  A
O629       Cu635   2.002       .  S
O629        C639   1.275       .  A
O630       Cu635   2.017       .  S
O630        C640   1.278       .  A
O631       Cu636   2.001       .  S
O631        C640   1.275       .  A
O632       Cu636   2.017       .  S
O632        C639   1.278       .  A
O633       Cu636   2.009       .  S
O633        C638   1.277       .  A
O634        C637   1.277       .  A
Cu635      Cu636   2.380       .  S
C640        C642   1.434       .  S
C641        C642   1.205       .  T
C643        C644   1.205       .  T
C645        C646   1.205       .  T
C647        C648   1.205       .  T
C649        C650   1.205       .  T
C651        C652   1.205       .  T
C653        C654   1.205       .  T
C655        C656   1.205       .  T
C659        C660   1.205       .  T
C661        C662   1.205       .  T
C663        C664   1.205       .  T
C665        C666   1.205       .  T
C667        C668   1.205       .  T
C669        C670   1.205       .  T
C671        C672   1.205       .  T
