geometry optimzed in LAMMPS
_audit_creation_date              2020-12-01 
_audit_creation_method            'lammps2cif' 
_symmetry_space_group_name_H-M    'P1' 
_symmetry_Int_Tables_number       1 
_symmetry_cell_setting            triclinic 
loop_ 
_symmetry_equiv_pos_as_xyz 
  x,y,z 
_cell_length_a                    25.10311194 
_cell_length_b                    25.12724687167106 
_cell_length_c                    74.85990742146988 
_cell_angle_alpha                 88.86944977724913 
_cell_angle_beta                  91.29182421040935 
_cell_angle_gamma                 89.42934767484755 
loop_ 
_atom_site_label 
_atom_site_type_symbol 
_atom_site_fract_x 
_atom_site_fract_y 
_atom_site_fract_z 
_atom_site_charge 
O1          O  0.24038353  0.28298132  0.72389299    -0.73000
O2          O  0.32689551  0.19172537  0.75449943    -0.73000
O3          O  0.24914180  0.17621312  0.72950049    -0.73100
O4          O  0.31804006  0.29873865  0.74878087    -0.73100
O5          O  0.25819420  0.30328994  0.77026992    -0.73100
O6          O  0.18944343  0.18070207  0.75101275    -0.73000
O7          O  0.26701339  0.19697127  0.77596478    -0.73000
O8          O  0.18045053  0.28773805  0.74532603    -0.73100
Ni9        Ni  0.28583733  0.23725134  0.73843321     1.25400
Ni10       Ni  0.22150738  0.24229416  0.76135974     1.25400
C11         C  0.19625130  0.30094235  0.72969449     0.89200
C12         C  0.31128596  0.17926378  0.77022282     0.89100
C13         C  0.20780036  0.15811078  0.73717279     0.89100
C14         C  0.29972140  0.32114990  0.76264894     0.89300
O15         O  0.82271070  0.29501124  0.74563212    -0.73000
O16         O  0.75156349  0.19901228  0.77730125    -0.73000
O17         O  0.82794681  0.18860822  0.75245698    -0.73100
O18         O  0.74647473  0.30484933  0.77048319    -0.73100
O19         O  0.68493421  0.29254928  0.74905738    -0.73100
O20         O  0.76626845  0.17623293  0.73109768    -0.73000
O21         O  0.69005665  0.18622228  0.75590708    -0.73000
O22         O  0.76117093  0.28204529  0.72426794    -0.73100
Ni23       Ni  0.78949648  0.24732999  0.76219428     1.25400
Ni24       Ni  0.72332442  0.23380046  0.73936209     1.25400
C25         C  0.80393851  0.30429839  0.72978324     0.89200
C26         C  0.70871609  0.17690221  0.77176208     0.89100
C27         C  0.81078343  0.16343700  0.73877607     0.89100
C28         C  0.70200234  0.31761791  0.76276535     0.89300
C29         C  0.99431349  0.48625912  0.67111917     0.81700
N30         N  0.04204664  0.46518235  0.67716032    -0.76700
C31         C  0.04307193  0.42071721  0.68787772     0.84100
N32         N  0.99689158  0.39838933  0.69279940    -0.76600
C33         C  0.94956247  0.41869992  0.68705111     0.84200
N34         N  0.94817258  0.46300146  0.67640691    -0.78300
C35         C  0.00424970  0.96009512  0.69054666     0.81700
N36         N  0.05327019  0.97698969  0.69634049    -0.76700
C37         C  0.05684197  0.01464123  0.70916069     0.84100
N38         N  0.01188820  0.03520426  0.71595665    -0.76600
C39         C  0.96334066  0.01963940  0.71020089     0.84200
N40         N  0.95943063  0.98231093  0.69739654    -0.78300
C41         C  0.50284764  0.51578119  0.81063642     0.81700
N42         N  0.45492459  0.49832327  0.80413958    -0.76700
C43         C  0.45286093  0.46256787  0.79076130     0.84100
N44         N  0.49862793  0.44368582  0.78403484    -0.76600
C45         C  0.54645811  0.45929865  0.79055719     0.84200
N46         N  0.54864860  0.49510223  0.80394729    -0.78300
C47         C  0.51320346  0.99393590  0.82806911     0.81700
N48         N  0.56020160  0.01665892  0.82333937    -0.76700
C49         C  0.56022993  0.06262863  0.81344866     0.84100
N50         N  0.51349208  0.08489718  0.80782918    -0.76600
C51         C  0.46666200  0.06290584  0.81224422     0.84200
N52         N  0.46643759  0.01708046  0.82215984    -0.78300
C53         C  0.98424762  0.79030436  0.63760078     0.87900
C54         C  0.03259634  0.79042293  0.62534911    -0.52300
C55         C  0.03519778  0.74853014  0.61399120     0.10800
C56         C  0.98819823  0.70975769  0.61575987     0.21800
C57         C  0.93625089  0.78728521  0.62431936    -0.53000
C58         C  0.93821884  0.74523277  0.61303454     0.11000
C59         C  0.98574473  0.73529591  0.64693987    -0.52600
C60         C  0.98819050  0.69340207  0.63567669     0.11500
H61         H  0.06191957  0.82190042  0.62547679     0.16000
H62         H  0.98974189  0.67544331  0.60665234     0.01800
H63         H  0.90311985  0.81470157  0.62324181     0.16300
H64         H  0.98492458  0.72988685  0.66136818     0.16100
O65         O  0.53174020  0.99398802  0.47470138    -0.73000
O66         O  0.42075514  0.92250821  0.49944163    -0.73000
O67         O  0.42396364  0.00494787  0.47603333    -0.73100
O68         O  0.52888390  0.91143788  0.49839994    -0.73100
O69         O  0.53734242  0.96668020  0.52115888    -0.73100
O70         O  0.43362910  0.05995114  0.49876130    -0.73000
O71         O  0.42980737  0.97757046  0.52228416    -0.73000
O72         O  0.54134872  0.04876839  0.49758840    -0.73100
Ni73       Ni  0.47610110  0.95612638  0.48635105     1.25400
Ni74       Ni  0.48588814  0.01524492  0.51072778     1.25400
C75         C  0.55501506  0.03314204  0.48213497     0.89200
C76         C  0.40624770  0.93877473  0.51471651     0.89100
C77         C  0.41075994  0.04775575  0.48393477     0.89100
C78         C  0.55074638  0.92381076  0.51340819     0.89300
O79         O  0.52352783  0.41887132  0.49714189    -0.73000
O80         O  0.41791226  0.50228948  0.52055430    -0.73000
O81         O  0.41573563  0.42838052  0.49485153    -0.73100
O82         O  0.52530842  0.49250315  0.52304432    -0.73100
O83         O  0.53382978  0.55500064  0.50172506    -0.73100
O84         O  0.42324137  0.49105481  0.47354596    -0.73000
O85         O  0.42573682  0.56504093  0.49933262    -0.73000
O86         O  0.53040775  0.48156264  0.47583666    -0.73100
Ni87       Ni  0.47037650  0.45818181  0.50962285     1.25400
Ni88       Ni  0.47858055  0.52559114  0.48690992     1.25400
C89         C  0.54420626  0.43628753  0.48265366     0.89200
C90         C  0.40401515  0.54742978  0.51359191     0.89100
C91         C  0.40133331  0.44891280  0.47968059     0.89100
C92         C  0.54794662  0.53413192  0.51690183     0.89300
C93         C  0.20991630  0.24671381  0.42998658     0.81700
N94         N  0.23104823  0.20192188  0.43826191    -0.76700
C95         C  0.27233957  0.20612490  0.45028968     0.84100
N96         N  0.29201032  0.25469386  0.45383780    -0.76600
C97         C  0.27183163  0.29904445  0.44574052     0.84200
N98         N  0.23054622  0.29530531  0.43386963    -0.78300
C99         C  0.73390625  0.23981581  0.42952438     0.81700
N100        N  0.71789398  0.19138303  0.43580457    -0.76700
C101        C  0.68108301  0.18823525  0.44874739     0.84100
N102        N  0.66005761  0.23321145  0.45536119    -0.76600
C103        C  0.67459984  0.28153145  0.44904993     0.84200
N104        N  0.71156916  0.28498257  0.43610040    -0.78300
C105        C  0.20480494  0.74369129  0.56303606     0.81700
N106        N  0.22418917  0.79178973  0.55764683    -0.76700
C107        C  0.26345481  0.79381386  0.54547346     0.84100
N108        N  0.28364311  0.74824545  0.53904920    -0.76600
C109        C  0.26572957  0.70034194  0.54459418     0.84200
N110        N  0.22604430  0.69779555  0.55665054    -0.78300
C111        C  0.75439286  0.72381253  0.56550931     0.81700
N112        N  0.73231197  0.67565338  0.56181631    -0.76700
C113        C  0.68783583  0.67331175  0.55117845     0.84100
N114        N  0.66623707  0.71840942  0.54399889    -0.76600
C115        C  0.68737411  0.76627022  0.54749062     0.84200
N116        N  0.73134284  0.76917598  0.55833869    -0.78300
O117        O  0.83320934  0.69897670  0.24260111    -0.73000
O118        O  0.74583370  0.81418440  0.22406276    -0.73000
O119        O  0.83271770  0.80722412  0.24552830    -0.73100
O120        O  0.74583347  0.70648591  0.22094070    -0.73100
O121        O  0.69583475  0.69882689  0.24508207    -0.73100
O122        O  0.78174789  0.80017709  0.26941595    -0.73000
O123        O  0.69516201  0.80617039  0.24798748    -0.73000
O124        O  0.78268676  0.69236694  0.26657131    -0.73100
Ni125      Ni  0.79138818  0.75685001  0.23243858     1.25400
Ni126      Ni  0.73707116  0.74907117  0.25809153     1.25400
C127        C  0.82191899  0.67598583  0.25748140     0.89200
C128        C  0.70659926  0.82996628  0.23330350     0.89100
C129        C  0.82032564  0.82192662  0.26121700     0.89100
C130        C  0.70673894  0.68559171  0.22912902     0.89300
O131        O  0.24672025  0.70117593  0.27527914    -0.73000
O132        O  0.32432644  0.81790267  0.25514349    -0.73000
O133        O  0.24413594  0.80916843  0.27834470    -0.73100
O134        O  0.32675540  0.70978320  0.25216217    -0.73100
O135        O  0.26883869  0.71601979  0.22919575    -0.73100
O136        O  0.18680276  0.81599154  0.25516528    -0.73000
O137        O  0.26674564  0.82372313  0.23210380    -0.73000
O138        O  0.18895388  0.70752389  0.25226147    -0.73100
Ni139      Ni  0.28760646  0.75934162  0.26604565     1.25400
Ni140      Ni  0.22562164  0.76604720  0.24141773     1.25400
C141        C  0.20593190  0.68395166  0.26667996     0.89200
C142        C  0.30813888  0.84054443  0.24045609     0.89100
C143        C  0.20270161  0.83017330  0.27072448     0.89100
C144        C  0.31081773  0.69544180  0.23660533     0.89300
C145        C  0.99871145  0.03476712  0.31244782     0.81700
N146        N  0.04772118  0.01385009  0.30901119    -0.76700
C147        C  0.05203926  0.97206097  0.29790334     0.84100
N148        N  0.00799237  0.95135500  0.29025732    -0.76600
C149        C  0.95928331  0.97112654  0.29366680     0.84200
N150        N  0.95436063  0.01258047  0.30488912    -0.78300
C151        C  0.49456323  0.49308110  0.18368965     0.81700
N152        N  0.54273816  0.51473077  0.18783876    -0.76700
C153        C  0.54556335  0.55604633  0.19918521     0.84100
N154        N  0.50066514  0.57567872  0.20621815    -0.76600
C155        C  0.45262154  0.55522385  0.20197950     0.84200
N156        N  0.44918949  0.51352636  0.19070085    -0.78300
C157        C  0.01437980  0.46689405  0.30791138     0.81700
N158        N  0.96899489  0.48688686  0.29982885    -0.76700
C159        C  0.97221925  0.52312471  0.28620055     0.84100
N160        N  0.02044819  0.54016361  0.28117672    -0.76600
C161        C  0.06572555  0.52218401  0.28934766     0.84200
N162        N  0.06299221  0.48539345  0.30290793    -0.78300
C163        C  0.50198524  0.04738716  0.19275522     0.81700
N164        N  0.54873595  0.02277826  0.19786680    -0.76700
C165        C  0.54893157  0.98104331  0.20957662     0.84100
N166        N  0.50249562  0.96351325  0.21604048    -0.76600
C167        C  0.45561087  0.98639046  0.21093693     0.84200
N168        N  0.45496382  0.02843304  0.19912953    -0.78300
C169        C  0.91860724  0.25652320  0.38302684     0.87900
C170        C  0.92876413  0.30549009  0.37078559    -0.52300
C171        C  0.97624770  0.30431238  0.36207789     0.10800
C172        C  0.00909456  0.25298435  0.36620523     0.21800
C173        C  0.92370660  0.20977529  0.37029884    -0.53000
C174        C  0.97060290  0.20767405  0.36146328     0.11000
C175        C  0.96833899  0.25245566  0.39534785    -0.52600
C176        C  0.01547034  0.25006823  0.38671237     0.11500
H177        H  0.90003751  0.33680244  0.36774017     0.16000
H178        H  0.04771736  0.25077189  0.35935172     0.01800
H179        H  0.89243309  0.18072717  0.36837099     0.16300
H180        H  0.96627568  0.25150095  0.40984288     0.16100
O181        O  0.96298350  0.44700747  0.00285071    -0.73000
O182        O  0.06867049  0.53385569  0.98090829    -0.73000
O183        O  0.07113242  0.44723293  0.00295069    -0.73100
O184        O  0.96032224  0.53334874  0.98100873    -0.73100
O185        O  0.96149722  0.58490659  0.00483115    -0.73100
O186        O  0.07187577  0.49860910  0.02681195    -0.73000
O187        O  0.06987103  0.58528248  0.00477040    -0.73000
O188        O  0.96344506  0.49841298  0.02670855    -0.73100
Ni189      Ni  0.01582089  0.48849813  0.99109980     1.25400
Ni190      Ni  0.01676866  0.54372077  0.01660869     1.25400
C191        C  0.94494436  0.45862048  0.01819418     0.89200
C192        C  0.08718490  0.57383910  0.98928991     0.89100
C193        C  0.08989532  0.45848084  0.01848354     0.89100
C194        C  0.94191348  0.57303507  0.98948325     0.89300
O195        O  0.96102225  0.01365588  0.02225363    -0.73000
O196        O  0.07372784  0.94126955  0.99839381    -0.73000
O197        O  0.06902499  0.01386720  0.02430648    -0.73100
O198        O  0.96438716  0.94060472  0.99646196    -0.73100
O199        O  0.96555321  0.00415800  0.97523739    -0.73100
O200        O  0.07097496  0.07722791  0.00305109    -0.73000
O201        O  0.07421477  0.00465128  0.97712686    -0.73000
O202        O  0.96275775  0.07723590  0.00112540    -0.73100
Ni203      Ni  0.01703514  0.97483394  0.01103076     1.25400
Ni204      Ni  0.01839696  0.04310060  0.98839470     1.25400
C205        C  0.94306085  0.05762210  0.01545068     0.89200
C206        C  0.09358810  0.96172370  0.98419529     0.89100
C207        C  0.08761022  0.05752916  0.01812980     0.89100
C208        C  0.94634763  0.96103696  0.98167888     0.89300
C209        C  0.75493645  0.25414468  0.06902239     0.81700
N210        N  0.77279735  0.20693733  0.06237745    -0.76700
C211        C  0.80915715  0.20700438  0.04913945     0.84100
N212        N  0.82746160  0.25373614  0.04273198    -0.76600
C213        C  0.81083336  0.30059908  0.04913594     0.84200
N214        N  0.77467790  0.30086088  0.06234065    -0.78300
C215        C  0.29240587  0.76292026  0.93778642     0.81700
N216        N  0.26811943  0.71892860  0.94481326    -0.76700
C217        C  0.22976758  0.72417949  0.95721885     0.84100
N218        N  0.21543474  0.77320232  0.96241947    -0.76600
C219        C  0.23792010  0.81720822  0.95541015     0.84200
N220        N  0.27637034  0.81233451  0.94301049    -0.78300
C221        C  0.27825545  0.25064808  0.07306798     0.81700
N222        N  0.25869167  0.29757165  0.06589350    -0.76700
C223        C  0.21937391  0.29712244  0.05308598     0.84100
N224        N  0.19971046  0.25022158  0.04767322    -0.76600
C225        C  0.21798877  0.20366965  0.05476040     0.84200
N226        N  0.25758344  0.20361263  0.06740533    -0.78300
C227        C  0.73549410  0.76617082  0.93691480     0.81700
N228        N  0.75822819  0.72202802  0.94492534    -0.76700
C229        C  0.79938242  0.72645942  0.95678998     0.84100
N230        N  0.81864774  0.77496502  0.96046562    -0.76600
C231        C  0.79782218  0.81921228  0.95242896     0.84200
N232        N  0.75600051  0.81517865  0.94060905    -0.78300
C233        C  0.57157385  0.26355977  0.11691142     0.87900
C234        C  0.56322818  0.31378983  0.12808194    -0.52300
C235        C  0.51685625  0.31500924  0.13725702     0.10800
C236        C  0.48334800  0.26447164  0.13514947     0.21800
C237        C  0.56804697  0.21844199  0.13099652    -0.53000
C238        C  0.52210649  0.21857221  0.14054906     0.11000
C239        C  0.52047327  0.25881902  0.10544483    -0.52600
C240        C  0.47449026  0.25927226  0.11485193     0.11500
H241        H  0.59277728  0.34418073  0.13016593     0.16000
H242        H  0.44591716  0.26494037  0.14277212     0.01800
H243        H  0.59959989  0.18911975  0.13339446     0.16300
H244        H  0.52068635  0.25546815  0.09099509     0.16100
C245        C  0.50886038  0.68903423  0.86288734     0.87900
C246        C  0.55833637  0.69197378  0.87545415    -0.52300
C247        C  0.55953887  0.73586686  0.88607287     0.10800
C248        C  0.51045633  0.77270499  0.88332481     0.21800
C249        C  0.46243915  0.69222094  0.87600963    -0.53000
C250        C  0.46267685  0.73586940  0.88665175     0.11000
C251        C  0.50758086  0.74238063  0.85259529    -0.52600
C252        C  0.50854244  0.78593056  0.86314495     0.11500
H253        H  0.58930844  0.66154105  0.87621484     0.16000
H254        H  0.51132699  0.80817018  0.89191567     0.01800
H255        H  0.43284507  0.66153551  0.87744697     0.16300
H256        H  0.50679897  0.74545552  0.83809285     0.16100
C257        C  0.66818309  0.80295326  0.91382624     0.25000
C258        C  0.68871882  0.75990888  0.92437669    -0.23100
C259        C  0.66393692  0.70986177  0.92275780     0.19900
C260        C  0.62179032  0.70267057  0.91058138     0.25000
C261        C  0.60284300  0.74499861  0.89959762    -0.23000
C262        C  0.62572435  0.79551545  0.90159909     0.19900
F263        F  0.60826806  0.83750266  0.89130984    -0.13000
F264        F  0.68952039  0.85221296  0.91503826    -0.15300
F265        F  0.59862581  0.65412612  0.90986639    -0.15300
F266        F  0.67979831  0.66729765  0.93306982    -0.13000
C267        C  0.36313219  0.20841331  0.08512162     0.25000
C268        C  0.32557633  0.25050127  0.08540852    -0.23100
C269        C  0.33578964  0.29371402  0.09669555     0.19900
C270        C  0.38318076  0.29545960  0.10698532     0.25000
C271        C  0.42149756  0.25461094  0.10591536    -0.23000
C272        C  0.41069440  0.21077235  0.09513941     0.19900
F273        F  0.44685440  0.17046559  0.09407614    -0.13000
F274        F  0.35536111  0.16606398  0.07441554    -0.15300
F275        F  0.39283665  0.33833012  0.11728689    -0.15300
F276        F  0.30020508  0.33455466  0.09764452    -0.13000
C277        C  0.36153224  0.70659599  0.92266530     0.25000
C278        C  0.33712299  0.75676691  0.92500152    -0.23100
C279        C  0.35710579  0.80084358  0.91531170     0.19900
C280        C  0.39898796  0.79453386  0.90336908     0.25000
C281        C  0.42175695  0.74405755  0.90062067    -0.23000
C282        C  0.40339054  0.70051973  0.91082171     0.19900
F283        F  0.42686206  0.65180545  0.90971985    -0.13000
F284        F  0.34567801  0.66292705  0.93201174    -0.15300
F285        F  0.41604116  0.83784997  0.89414082    -0.15300
F286        F  0.33560984  0.85021004  0.91702961    -0.13000
C287        C  0.69499609  0.30422992  0.08963628     0.25000
C288        C  0.71137219  0.25549568  0.08241125    -0.23100
C289        C  0.68252637  0.20948666  0.08699987     0.19900
C290        C  0.63829520  0.21250308  0.09811250     0.25000
C291        C  0.62188710  0.26135188  0.10544036    -0.23000
C292        C  0.65031104  0.30747501  0.10038103     0.19900
F293        F  0.63320583  0.35707715  0.10430092    -0.13000
F294        F  0.72101071  0.35008697  0.08587643    -0.15300
F295        F  0.61021184  0.16741997  0.10112085    -0.15300
F296        F  0.69570997  0.16140639  0.08031596    -0.13000
C297        C  0.83395529  0.15897936  0.02213864     0.25000
C298        C  0.82948284  0.15832482  0.04082143    -0.23100
C299        C  0.85599787  0.11815946  0.05097597     0.19900
C300        C  0.89075970  0.08255387  0.04265543     0.25000
C301        C  0.89952009  0.08724542  0.02411616    -0.23000
C302        C  0.86858564  0.12409850  0.01388943     0.19900
F303        F  0.87357310  0.12828585  0.99588723    -0.13000
F304        F  0.80764746  0.19648086  0.01191808    -0.15300
F305        F  0.91883142  0.04653469  0.05292968    -0.15300
F306        F  0.85223974  0.11657613  0.06903800    -0.13000
C307        C  0.12686989  0.08883404  0.04720707     0.25000
C308        C  0.12866497  0.08613514  0.02843899    -0.23100
C309        C  0.16804317  0.11439763  0.01933305     0.19900
C310        C  0.20187663  0.14838373  0.02856369     0.25000
C311        C  0.19696725  0.15481248  0.04703354    -0.23000
C312        C  0.16077391  0.12336420  0.05645983     0.19900
F313        F  0.15473304  0.12987762  0.07426328    -0.13000
F314        F  0.08930451  0.06182243  0.05636815    -0.15300
F315        F  0.23676697  0.17845443  0.01923954    -0.15300
F316        F  0.17231077  0.11085556  0.00134076    -0.13000
C317        C  0.86353237  0.89032146  0.94665309     0.25000
C318        C  0.82248384  0.86990439  0.95718713    -0.23100
C319        C  0.81869387  0.88597778  0.97496710     0.19900
C320        C  0.85784520  0.91801297  0.98258800     0.25000
C321        C  0.90130940  0.93491825  0.97251461    -0.23000
C322        C  0.90253405  0.92322703  0.95423710     0.19900
F323        F  0.94405737  0.93926824  0.94421943    -0.13000
F324        F  0.86910458  0.87369182  0.92964554    -0.15300
F325        F  0.85474441  0.93038440  0.00011959    -0.15300
F326        F  0.77993143  0.86606468  0.98547615    -0.13000
C327        C  0.21714450  0.87693515  0.97991821     0.25000
C328        C  0.21753355  0.86866344  0.96142964    -0.23100
C329        C  0.18329004  0.89917795  0.95012030     0.19900
C330        C  0.14470451  0.93268496  0.95742747     0.25000
C331        C  0.13989252  0.93534754  0.97611082    -0.23000
C332        C  0.17856626  0.90984460  0.98721717     0.19900
F333        F  0.17745756  0.91475371  0.00523966    -0.13000
F334        F  0.25084822  0.84875813  0.99105487    -0.15300
F335        F  0.10908963  0.95840099  0.94631281    -0.15300
F336        F  0.18315774  0.89193140  0.93219530    -0.13000
C337        C  0.17786215  0.38811407  0.05390257     0.25000
C338        C  0.19814841  0.34579638  0.04410537    -0.23100
C339        C  0.18903021  0.34526653  0.02551298     0.19900
C340        C  0.15633471  0.38361878  0.01705290     0.25000
C341        C  0.13167248  0.42350375  0.02703004    -0.23000
C342        C  0.14487339  0.42683614  0.04544009     0.19900
F343        F  0.12336490  0.46548010  0.05553488    -0.13000
F344        F  0.18613556  0.38946682  0.07186896    -0.15300
F345        F  0.14726883  0.38011056  0.99916084    -0.15300
F346        F  0.20971056  0.30566207  0.01560098    -0.13000
C347        C  0.17385118  0.64244805  0.95464663     0.25000
C348        C  0.20215790  0.67834957  0.96528860    -0.23100
C349        C  0.19579771  0.67660067  0.98388960     0.19900
C350        C  0.15986327  0.64154092  0.99169158     0.25000
C351        C  0.12891163  0.60749055  0.98103155    -0.23000
C352        C  0.13746988  0.60727788  0.96242798     0.19900
F353        F  0.10857382  0.57525442  0.95158930    -0.13000
F354        F  0.17833886  0.64421810  0.93660554    -0.15300
F355        F  0.15483414  0.64179561  0.00971217    -0.15300
F356        F  0.22330122  0.71043418  0.99451412    -0.13000
C357        C  0.88300963  0.60235807  0.96325329     0.25000
C358        C  0.89806881  0.60632250  0.98147374    -0.23100
C359        C  0.87225577  0.64452027  0.99187986     0.19900
C360        C  0.83655113  0.68107750  0.98392459     0.25000
C361        C  0.82518362  0.67985702  0.96551629    -0.23000
C362        C  0.84671033  0.63894601  0.95535309     0.19900
F363        F  0.83608308  0.63707106  0.93751296    -0.13000
F364        F  0.90548132  0.56515195  0.95279935    -0.15300
F365        F  0.81461175  0.71933934  0.99410555    -0.15300
F366        F  0.88265091  0.64786546  0.00970139    -0.13000
C367        C  0.87484127  0.38883028  0.01516914     0.25000
C368        C  0.90262416  0.42490090  0.02603457    -0.23100
C369        C  0.89084320  0.42626901  0.04440026     0.19900
C370        C  0.85627000  0.38877244  0.05193481     0.25000
C371        C  0.83316103  0.34956925  0.04123204    -0.23000
C372        C  0.84059137  0.35178020  0.02269010     0.19900
F373        F  0.81650718  0.31602289  0.01187313    -0.13000
F374        F  0.88196674  0.38794393  0.99724623    -0.15300
F375        F  0.84888416  0.38813848  0.06984496    -0.15300
F376        F  0.91507763  0.46163704  0.05529425    -0.13000
C377        C  0.46043149  0.10916602  0.16903204     0.25000
C378        C  0.50358362  0.09497574  0.18061504    -0.23100
C379        C  0.55007503  0.12597348  0.18011821     0.19900
C380        C  0.55467811  0.16754889  0.16766104     0.25000
C381        C  0.51321982  0.17926233  0.15525490    -0.23000
C382        C  0.46528094  0.15099463  0.15642983     0.19900
F383        F  0.42421078  0.16185662  0.14477850    -0.13000
F384        F  0.41452868  0.08108674  0.16928091    -0.15300
F385        F  0.60011607  0.19645410  0.16770807    -0.15300
F386        F  0.59155209  0.11622383  0.19172338    -0.13000
C387        C  0.02814448  0.37419022  0.32013101     0.25000
C388        C  0.01005622  0.42659273  0.32241642    -0.23100
C389        C  0.98386402  0.43937300  0.33811991     0.19900
C390        C  0.97587000  0.40048517  0.35140251     0.25000
C391        C  0.99127454  0.34693971  0.34884525    -0.23000
C392        C  0.01807236  0.33447169  0.33304522     0.19900
F393        F  0.03178204  0.28349712  0.32945371    -0.13000
F394        F  0.05281281  0.36080451  0.30487766    -0.15300
F395        F  0.95299747  0.41557480  0.36678966    -0.15300
F396        F  0.96575640  0.48975230  0.34056921    -0.13000
C397        C  0.50577866  0.45618038  0.15355712     0.25000
C398        C  0.49234883  0.44805965  0.17144781    -0.23100
C399        C  0.48231961  0.39620451  0.17781758     0.19900
C400        C  0.48784199  0.35263236  0.16651506     0.25000
C401        C  0.50324800  0.36064426  0.14870667    -0.23000
C402        C  0.51063503  0.41301517  0.14222983     0.19900
F403        F  0.52374277  0.42233263  0.12495588    -0.13000
F404        F  0.51543974  0.50603418  0.14717394    -0.15300
F405        F  0.48175025  0.30263252  0.17331403    -0.15300
F406        F  0.47047522  0.38753489  0.19523582    -0.13000
C407        C  0.94771758  0.11409264  0.32316292     0.25000
C408        C  0.99349053  0.08116201  0.32435123    -0.23100
C409        C  0.03374114  0.09299376  0.33711735     0.19900
C410        C  0.02733425  0.13544032  0.34878572     0.25000
C411        C  0.98066781  0.16664527  0.34796170    -0.23000
C412        C  0.94150630  0.15630044  0.33480670     0.19900
F413        F  0.89699239  0.18735363  0.33318172    -0.13000
F414        F  0.90884069  0.10592364  0.31063759    -0.15300
F415        F  0.06555145  0.14430265  0.36147016    -0.15300
F416        F  0.07844234  0.06230790  0.33885405    -0.13000
C417        C  0.15548524  0.60095309  0.26053988     0.25000
C418        C  0.17853962  0.63539500  0.27304685    -0.23100
C419        C  0.17372697  0.62344029  0.29141029     0.19900
C420        C  0.14192615  0.58089057  0.29708134     0.25000
C421        C  0.11504023  0.54964273  0.28446422    -0.23000
C422        C  0.12427022  0.55847475  0.26620127     0.19900
F423        F  0.09908745  0.52856987  0.25373280    -0.13000
F424        F  0.16156523  0.60949179  0.24273161    -0.15300
F425        F  0.13278689  0.57395743  0.31477539    -0.15300
F426        F  0.19597828  0.65550886  0.30384137    -0.13000
C427        C  0.37217957  0.91566650  0.24422948     0.25000
C428        C  0.33823004  0.88624473  0.23302058    -0.23100
C429        C  0.33577334  0.89930264  0.21457509     0.19900
C430        C  0.37025633  0.93731569  0.20734542     0.25000
C431        C  0.40725174  0.96299739  0.21844100    -0.23000
C432        C  0.40635891  0.95344511  0.23699227     0.19900
F433        F  0.44168577  0.97801778  0.24801139    -0.13000
F434        F  0.37397138  0.90651043  0.26217515    -0.15300
F435        F  0.37120701  0.94497932  0.18935424    -0.15300
F436        F  0.30307001  0.87246902  0.20330587    -0.13000
C437        C  0.12052368  0.90277243  0.30427917     0.25000
C438        C  0.10301101  0.94706170  0.29393168    -0.23100
C439        C  0.12382465  0.95597604  0.27693798     0.19900
C440        C  0.15872338  0.91895019  0.26979017     0.25000
C441        C  0.17321538  0.87256403  0.27957735    -0.23000
C442        C  0.15598743  0.86581932  0.29718949     0.19900
F443        F  0.16935295  0.82114724  0.30683377    -0.13000
F444        F  0.09901872  0.89255674  0.32045844    -0.15300
F445        F  0.17645914  0.92709980  0.25295813    -0.15300
F446        F  0.10636004  0.99798425  0.26663462    -0.13000
C447        C  0.37394550  0.61582637  0.19989388     0.25000
C448        C  0.40598520  0.57982268  0.20999614    -0.23100
C449        C  0.40306938  0.57898886  0.22868114     0.19900
C450        C  0.37082622  0.61553479  0.23727287     0.25000
C451        C  0.34100683  0.65390927  0.22729138    -0.23000
C452        C  0.34136222  0.65253873  0.20847411     0.19900
F453        F  0.31330585  0.68910448  0.19840872    -0.13000
F454        F  0.37786305  0.61861069  0.18183988    -0.15300
F455        F  0.36997874  0.61420861  0.25540958    -0.15300
F456        F  0.43437479  0.54489865  0.23866583    -0.13000
C457        C  0.66021313  0.65011634  0.20187902     0.25000
C458        C  0.67311679  0.64574414  0.22026158    -0.23100
C459        C  0.65007206  0.60506982  0.23058645     0.19900
C460        C  0.61190534  0.57199137  0.22302045     0.25000
C461        C  0.59626836  0.57879019  0.20503257    -0.23000
C462        C  0.62154869  0.61696340  0.19433264     0.19900
F463        F  0.60547182  0.62520588  0.17705123    -0.13000
F464        F  0.68155395  0.68922077  0.19160078    -0.15300
F465        F  0.58734409  0.53559730  0.23357193    -0.15300
F466        F  0.66298861  0.59862561  0.24821827    -0.13000
C467        C  0.85038182  0.61084031  0.28204795     0.25000
C468        C  0.85468589  0.63005423  0.26426888    -0.23100
C469        C  0.89170219  0.60550846  0.25312911     0.19900
C470        C  0.92637934  0.56610449  0.25997317     0.25000
C471        C  0.92515621  0.55042160  0.27809187    -0.23000
C472        C  0.88536047  0.57129735  0.28887737     0.19900
F473        F  0.88334522  0.55705826  0.30643779    -0.13000
F474        F  0.81458931  0.63240295  0.29322482    -0.15300
F475        F  0.96342348  0.54524577  0.24907699    -0.15300
F476        F  0.89586437  0.62072117  0.23571230    -0.13000
C477        C  0.67082738  0.89286883  0.20911633     0.25000
C478        C  0.67352298  0.87615584  0.22722200    -0.23100
C479        C  0.64186803  0.90261498  0.23962246     0.19900
C480        C  0.60448566  0.94067825  0.23383697     0.25000
C481        C  0.59812214  0.95352934  0.21560330    -0.23000
C482        C  0.63313349  0.93141812  0.20333640     0.19900
F483        F  0.62780836  0.94362265  0.18563442    -0.13000
F484        F  0.70198145  0.86957839  0.19683953    -0.15300
F485        F  0.57230261  0.96312841  0.24601076    -0.15300
F486        F  0.64565370  0.89050193  0.25737254    -0.13000
C487        C  0.87750641  0.90272582  0.25911362     0.25000
C488        C  0.85018919  0.86551150  0.26973552    -0.23100
C489        C  0.85174340  0.87072737  0.28846365     0.19900
C490        C  0.88315085  0.90989281  0.29639072     0.25000
C491        C  0.91332461  0.94418625  0.28574757    -0.23000
C492        C  0.90908026  0.94140982  0.26708396     0.19900
F493        F  0.93806843  0.97437937  0.25658972    -0.13000
F494        F  0.87470269  0.90107350  0.24099323    -0.15300
F495        F  0.88786923  0.91123203  0.31447945    -0.15300
F496        F  0.82575926  0.83587481  0.29917926    -0.13000
C497        C  0.82842459  0.29458044  0.39479298     0.25000
C498        C  0.86727928  0.25335997  0.39390350    -0.23100
C499        C  0.85924644  0.20669051  0.40435387     0.19900
C500        C  0.81546437  0.20170650  0.41541993     0.25000
C501        C  0.77788711  0.24332215  0.41656781    -0.23000
C502        C  0.78452348  0.28932266  0.40589665     0.19900
F503        F  0.74840894  0.32988512  0.40618133    -0.13000
F504        F  0.83215495  0.34110318  0.38557154    -0.15300
F505        F  0.81143587  0.15661617  0.42558074    -0.15300
F506        F  0.89504889  0.16577525  0.40426673    -0.13000
C507        C  0.10786889  0.28252305  0.39324492     0.25000
C508        C  0.06747235  0.24567528  0.39656641    -0.23100
C509        C  0.07567174  0.20671062  0.41015017     0.19900
C510        C  0.12284978  0.20551988  0.42054517     0.25000
C511        C  0.16259879  0.24375424  0.41770866    -0.23000
C512        C  0.15478639  0.28183216  0.40376004     0.19900
F513        F  0.19238186  0.31895421  0.40038821    -0.13000
F514        F  0.10077187  0.32105317  0.38041806    -0.15300
F515        F  0.12829027  0.16859592  0.43396768    -0.15300
F516        F  0.03761207  0.17002969  0.41349430    -0.13000
C517        C  0.28273159  0.36438256  0.46937302     0.25000
C518        C  0.29241663  0.35014879  0.45171480    -0.23100
C519        C  0.33301026  0.37556514  0.44229200     0.19900
C520        C  0.36622874  0.41196336  0.45096451     0.25000
C521        C  0.35954846  0.42214914  0.46920272    -0.23000
C522        C  0.31610231  0.39999532  0.47807908     0.19900
F523        F  0.30804587  0.41021801  0.49556606    -0.13000
F524        F  0.24410601  0.33959692  0.47873798    -0.15300
F525        F  0.40814092  0.43269027  0.44213269    -0.15300
F526        F  0.34391349  0.36102388  0.42537832    -0.13000
C527        C  0.65192430  0.33359237  0.47555273     0.25000
C528        C  0.65026861  0.32886873  0.45689630    -0.23100
C529        C  0.61768990  0.36372803  0.44650516     0.19900
C530        C  0.58479427  0.40084391  0.45482024     0.25000
C531        C  0.58392000  0.40303047  0.47362453    -0.23000
C532        C  0.61920634  0.37039932  0.48384632     0.19900
F533        F  0.62122667  0.37335568  0.50194004    -0.13000
F534        F  0.68383942  0.30080623  0.48581087    -0.15300
F535        F  0.55107271  0.43177072  0.44456199    -0.15300
F536        F  0.61445888  0.35887635  0.42848001    -0.13000
C537        C  0.35678722  0.58116241  0.54059446     0.25000
C538        C  0.36226325  0.58014247  0.52189460    -0.23100
C539        C  0.32919657  0.61331517  0.51100457     0.19900
C540        C  0.29412993  0.64928693  0.51860765     0.25000
C541        C  0.29096464  0.65272085  0.53723547    -0.23000
C542        C  0.32147047  0.61753204  0.54822494     0.19900
F543        F  0.32052456  0.62154888  0.56627707    -0.13000
F544        F  0.38833533  0.54991515  0.55150303    -0.15300
F545        F  0.26507517  0.68301191  0.50774529    -0.15300
F546        F  0.33176317  0.61195885  0.49291856    -0.13000
C547        C  0.67396733  0.60722190  0.52800684     0.25000
C548        C  0.66441604  0.62317835  0.54550461    -0.23100
C549        C  0.62012254  0.60314084  0.55447945     0.19900
C550        C  0.58365922  0.57060610  0.54553651     0.25000
C551        C  0.59074018  0.55900966  0.52743562    -0.23000
C552        C  0.63721544  0.57562141  0.51898051     0.19900
F553        F  0.64555428  0.56360574  0.50165362    -0.13000
F554        F  0.71597692  0.62715464  0.51902575    -0.15300
F555        F  0.53886750  0.55506792  0.55395356    -0.15300
F556        F  0.60931286  0.61958695  0.57119726    -0.13000
C557        C  0.34524243  0.07500932  0.45898620     0.25000
C558        C  0.36883883  0.08407452  0.47597978    -0.23100
C559        C  0.35249775  0.12936161  0.48532087     0.19900
C560        C  0.31730681  0.16645941  0.47737470     0.25000
C561        C  0.29747156  0.15978887  0.45983088    -0.23000
C562        C  0.30977374  0.11258285  0.45100744     0.19900
F563        F  0.29042065  0.10443406  0.43422063    -0.13000
F564        F  0.35795090  0.03094097  0.44972437    -0.15300
F565        F  0.30405803  0.21030372  0.48671794    -0.15300
F566        F  0.37162242  0.13906432  0.50204744    -0.13000
C567        C  0.63796474  0.85271433  0.54883891     0.25000
C568        C  0.66235153  0.81337522  0.53873048    -0.23100
C569        C  0.65377201  0.81342839  0.52012528     0.19900
C570        C  0.61907218  0.85047858  0.51180309     0.25000
C571        C  0.59167574  0.88799423  0.52199242    -0.23000
C572        C  0.60285726  0.88980783  0.54055975     0.19900
F573        F  0.57748497  0.92534317  0.55092219    -0.13000
F574        F  0.64482393  0.85261680  0.56688107    -0.15300
F575        F  0.61165885  0.84885485  0.49379822    -0.15300
F576        F  0.67761163  0.77600479  0.51007297    -0.13000
C577        C  0.36351371  0.90193484  0.54219615     0.25000
C578        C  0.36191254  0.91169342  0.52361729    -0.23100
C579        C  0.31953172  0.89139815  0.51329716     0.19900
C580        C  0.28246877  0.85764403  0.52111288     0.25000
C581        C  0.28707777  0.84384145  0.53933549    -0.23000
C582        C  0.32635424  0.86790106  0.54999590     0.19900
F583        F  0.33221235  0.85395320  0.56754786    -0.13000
F584        F  0.40392182  0.92105419  0.55249642    -0.15300
F585        F  0.24462073  0.83482933  0.51060798    -0.15300
F586        F  0.31545260  0.90223542  0.49546611    -0.13000
C587        C  0.63769325  0.08748902  0.48232812     0.25000
C588        C  0.59682203  0.06236151  0.47260476    -0.23100
C589        C  0.59286997  0.07063077  0.45395434     0.19900
C590        C  0.62521326  0.10818440  0.44556693     0.25000
C591        C  0.66204865  0.13719783  0.45569861    -0.23000
C592        C  0.66994953  0.12483022  0.47391661     0.19900
F593        F  0.70629251  0.15189469  0.48380614    -0.13000
F594        F  0.64463034  0.07789791  0.50015052    -0.15300
F595        F  0.61664334  0.12026726  0.42797099    -0.15300
F596        F  0.55432148  0.04644671  0.44413429    -0.13000
C597        C  0.13209803  0.75246909  0.60645175     0.25000
C598        C  0.07894940  0.74308376  0.60101246    -0.23100
C599        C  0.06787760  0.73180003  0.58295518     0.19900
C600        C  0.10909194  0.73092438  0.57058238     0.25000
C601        C  0.16174932  0.74156485  0.57606849    -0.23000
C602        C  0.17294842  0.75215467  0.59405443     0.19900
F603        F  0.22364070  0.76229299  0.59959898    -0.13000
F604        F  0.14461546  0.76173506  0.62384378    -0.15300
F605        F  0.09737204  0.72168806  0.55312633    -0.15300
F606        F  0.01698266  0.72427389  0.57709587    -0.13000
C607        C  0.88174661  0.77667964  0.58694021     0.25000
C608        C  0.89524047  0.73632110  0.59950863    -0.23100
C609        C  0.86424293  0.69017910  0.60019239     0.19900
C610        C  0.81889885  0.68553405  0.58902324     0.25000
C611        C  0.80396742  0.72697928  0.57682622    -0.23000
C612        C  0.83690828  0.77205101  0.57566681     0.19900
F613        F  0.82603988  0.81188636  0.56357607    -0.13000
F614        F  0.91201242  0.82102961  0.58567616    -0.15300
F615        F  0.78854659  0.64138385  0.59073154    -0.15300
F616        F  0.87621819  0.65078115  0.61232766    -0.13000
C617        C  0.46460651  0.92092040  0.84461632     0.25000
C618        C  0.51277161  0.94185177  0.83813960    -0.23100
C619        C  0.55992439  0.91108390  0.84075433     0.19900
C620        C  0.55856187  0.86096001  0.84927976     0.25000
C621        C  0.51043377  0.84051985  0.85545828    -0.23000
C622        C  0.46357081  0.87068112  0.85303333     0.19900
F623        F  0.41626043  0.85055465  0.85820547    -0.13000
F624        F  0.41801067  0.94850528  0.84265476    -0.15300
F625        F  0.60417873  0.83165872  0.85112181    -0.15300
F626        F  0.60732008  0.92840623  0.83462025    -0.13000
C627        C  0.45783074  0.57714909  0.83216989     0.25000
C628        C  0.50494088  0.55794032  0.82455824    -0.23100
C629        C  0.55339276  0.58214635  0.82957508     0.19900
C630        C  0.55460867  0.62360038  0.84188528     0.25000
C631        C  0.50762131  0.64160159  0.85006726    -0.23000
C632        C  0.45891027  0.61920554  0.84414583     0.19900
F633        F  0.41123349  0.63990344  0.84879938    -0.13000
F634        F  0.40967239  0.55652785  0.82769267    -0.15300
F635        F  0.60193035  0.64775496  0.84500539    -0.15300
F636        F  0.59993673  0.56727401  0.82214089    -0.13000
C637        C  0.03845194  0.87804756  0.67537696     0.25000
C638        C  0.99905590  0.91769652  0.67695687    -0.23100
C639        C  0.95325427  0.91534254  0.66583075     0.19900
C640        C  0.94698626  0.87500584  0.65333008     0.25000
C641        C  0.98708291  0.83557066  0.65127753    -0.23000
C642        C  0.03259691  0.83781450  0.66278821     0.19900
F643        F  0.07174450  0.80026352  0.66198609    -0.13000
F644        F  0.08211639  0.87697385  0.68642109    -0.15300
F645        F  0.90065711  0.87544519  0.64379183    -0.15300
F646        F  0.91401235  0.95268679  0.66685552    -0.13000
C647        C  0.03492492  0.60644158  0.64253717     0.25000
C648        C  0.98837586  0.63779863  0.64257710    -0.23100
C649        C  0.94328573  0.61825140  0.65110237     0.19900
C650        C  0.94476486  0.56861888  0.65986678     0.25000
C651        C  0.99195996  0.53735022  0.66051498    -0.23000
C652        C  0.03693509  0.55679289  0.65151993     0.19900
F653        F  0.08316639  0.52829396  0.65159201    -0.13000
F654        F  0.07919178  0.62501785  0.63450512    -0.15300
F655        F  0.90035658  0.55265857  0.66840354    -0.15300
F656        F  0.89793202  0.64812535  0.65134693    -0.13000
C657        C  0.63728463  0.39323130  0.75838463     0.25000
C658        C  0.66891976  0.36082731  0.76998611    -0.23100
C659        C  0.66530236  0.36731062  0.78857380     0.19900
C660        C  0.62824236  0.40323157  0.79541325     0.25000
C661        C  0.59447738  0.43314949  0.78377135    -0.23000
C662        C  0.60034787  0.42897752  0.76522593     0.19900
F663        F  0.56844633  0.45790975  0.75371626    -0.13000
F664        F  0.64105823  0.38922041  0.74039120    -0.15300
F665        F  0.62190458  0.40506629  0.81335599    -0.15300
F666        F  0.69437790  0.33575212  0.80013746    -0.13000
C667        C  0.86316842  0.38200073  0.72495321     0.25000
C668        C  0.83306100  0.34042944  0.71772268    -0.23100
C669        C  0.83495174  0.33123925  0.69920853     0.19900
C670        C  0.86986143  0.36034472  0.68847852     0.25000
C671        C  0.90215177  0.39948190  0.69608920    -0.23000
C672        C  0.89732678  0.41120631  0.71421874     0.19900
F673        F  0.92902916  0.44836414  0.72183629    -0.13000
F674        F  0.86120103  0.39303340  0.74261220    -0.15300
F675        F  0.87519945  0.34753851  0.67106948    -0.15300
F676        F  0.80645517  0.29132908  0.69179595    -0.13000
C677        C  0.61545995  0.06941556  0.78693378     0.25000
C678        C  0.60849635  0.08200823  0.80489647    -0.23100
C679        C  0.63932105  0.12222542  0.81259743     0.19900
C680        C  0.67515550  0.15111472  0.80212833     0.25000
C681        C  0.67922443  0.14085115  0.78374866    -0.23000
C682        C  0.65037322  0.09853782  0.77644226     0.19900
F683        F  0.65420206  0.08678924  0.75888662    -0.13000
F684        F  0.58491017  0.03162223  0.77915757    -0.15300
F685        F  0.70232590  0.19186898  0.80957873    -0.15300
F686        F  0.63177114  0.13614086  0.82979721    -0.13000
C687        C  0.84399397  0.11070296  0.71303052     0.25000
C688        C  0.84362488  0.11994049  0.73155081    -0.23100
C689        C  0.87769084  0.08952666  0.74299644     0.19900
C690        C  0.91376320  0.05324498  0.73599578     0.25000
C691        C  0.91638980  0.04647105  0.71745065    -0.23000
C692        C  0.88014294  0.07412783  0.70604041     0.19900
F693        F  0.88294205  0.06932493  0.68805020    -0.13000
F694        F  0.81236642  0.14000202  0.70155100    -0.15300
F695        F  0.94789343  0.02619970  0.74730220    -0.15300
F696        F  0.87706524  0.09585362  0.76096433    -0.13000
C697        C  0.37172143  0.40843071  0.79579580     0.25000
C698        C  0.40248257  0.43960802  0.78424722    -0.23100
C699        C  0.39229842  0.43797231  0.76574445     0.19900
C700        C  0.35545026  0.40216949  0.75876264     0.25000
C701        C  0.32855413  0.36696600  0.77017771    -0.23000
C702        C  0.33479491  0.37235054  0.78880712     0.19900
F703        F  0.30915408  0.33921485  0.80020956    -0.13000
F704        F  0.38154634  0.40866662  0.81370407    -0.15300
F705        F  0.34791739  0.40015146  0.74076815    -0.15300
F706        F  0.42082793  0.46859753  0.75435689    -0.13000
C707        C  0.09403225  0.40625704  0.71596247     0.25000
C708        C  0.09157199  0.40130219  0.69731421    -0.23100
C709        C  0.12691077  0.36635684  0.68909554     0.19900
C710        C  0.16275664  0.33496616  0.69953341     0.25000
C711        C  0.16290948  0.33765633  0.71834842    -0.23000
C712        C  0.12911215  0.37471495  0.72638716     0.19900
F713        F  0.12872608  0.37937411  0.74442985    -0.13000
F714        F  0.05943742  0.43910979  0.72420205    -0.15300
F715        F  0.19434996  0.29921693  0.69132421    -0.15300
F716        F  0.12373520  0.35952622  0.67116306    -0.13000
C717        C  0.11473190  0.04146116  0.73436297     0.23800
C718        C  0.10775880  0.03638053  0.71580473    -0.23100
C719        C  0.14107512  0.06501344  0.70432665     0.19900
C720        C  0.17712330  0.10212795  0.71133009     0.25000
C721        C  0.17952407  0.11142942  0.72986493    -0.23000
C722        C  0.15004727  0.07863245  0.74132987     0.19900
F723        F  0.15324199  0.08444182  0.75931780    -0.13000
F724        F  0.08361124  0.01355842  0.74574517    -0.15300
F725        F  0.20583672  0.13229775  0.69986883    -0.15300
F726        F  0.13471896  0.06136337  0.68633570    -0.13000
C727        C  0.38705422  0.12302620  0.81087087     0.25000
C728        C  0.41844088  0.08372001  0.80306161    -0.23100
C729        C  0.41117708  0.07295017  0.78485912     0.19900
C730        C  0.37506133  0.10301244  0.77430894     0.25000
C731        C  0.34518422  0.14413191  0.78184767    -0.23000
C732        C  0.35015558  0.15280075  0.80035838     0.19900
F733        F  0.32226374  0.19258913  0.80799987    -0.13000
F734        F  0.39467242  0.13487985  0.82835290    -0.15300
F735        F  0.37025334  0.09274946  0.75660644    -0.15300
F736        F  0.44163711  0.03533273  0.77707574    -0.13000
loop_ 
_geom_bond_atom_site_label_1 
_geom_bond_atom_site_label_2 
_geom_bond_distance 
_geom_bond_site_symmetry_2 
_ccdc_geom_bond_type 
O1           Ni9   1.917       .  S
O1           C11   1.280       .  A
O2           Ni9   1.919       .  S
O2           C12   1.283       .  A
O3           Ni9   1.921       .  S
O3           C13   1.281       .  A
O4           Ni9   1.919       .  S
O4           C14   1.283       .  A
O5          Ni10   1.919       .  S
O5           C14   1.280       .  A
O6          Ni10   1.920       .  S
O6           C13   1.284       .  A
O7          Ni10   1.915       .  S
O7           C12   1.280       .  A
O8          Ni10   1.917       .  S
O8           C11   1.283       .  A
Ni9         Ni10   2.387       .  S
C11         C711   1.481       .  S
C12         C731   1.477       .  S
C13         C721   1.484       .  S
C14         C701   1.480       .  S
O15         Ni23   1.917       .  S
O15          C25   1.283       .  A
O16         Ni23   1.918       .  S
O16          C26   1.280       .  A
O17         Ni23   1.920       .  S
O17          C27   1.283       .  A
O18         Ni23   1.917       .  S
O18          C28   1.280       .  A
O19         Ni24   1.918       .  S
O19          C28   1.282       .  A
O20         Ni24   1.916       .  S
O20          C27   1.280       .  A
O21         Ni24   1.915       .  S
O21          C26   1.282       .  A
O22         Ni24   1.915       .  S
O22          C25   1.279       .  A
Ni23        Ni24   2.388       .  S
C25         C668   1.478       .  S
C26         C681   1.478       .  S
C27         C688   1.481       .  S
C28         C658   1.479       .  S
C29         C651   1.496       .  S
C29          N30   1.369   1_655  A
C29          N34   1.366       .  A
N30          C31   1.362       .  A
C31         C708   1.468       .  S
C31          N32   1.349   1_455  A
N32          C33   1.347       .  A
C33         C671   1.464       .  S
C33          N34   1.356       .  A
C35         C638   1.492   1_455  S
C35          N36   1.370       .  A
C35          N40   1.366   1_455  A
N36          C37   1.363   1_565  A
C37         C718   1.475       .  S
C37          N38   1.351       .  A
N38          C39   1.348   1_455  A
C39         C691   1.472       .  S
C39          N40   1.357   1_545  A
C41         C628   1.501       .  S
C41          N42   1.367       .  A
C41          N46   1.366       .  A
N42          C43   1.359       .  A
C43         C698   1.472       .  S
C43          N44   1.350       .  A
N44          C45   1.351       .  A
C45         C661   1.472       .  S
C45          N46   1.361       .  A
C47         C618   1.498       .  S
C47          N48   1.367   1_565  A
C47          N52   1.366   1_565  A
N48          C49   1.360       .  A
C49         C678   1.466       .  S
C49          N50   1.350       .  A
N50          C51   1.349       .  A
C51         C728   1.465       .  S
C51          N52   1.358       .  A
C53          C54   1.538   1_655  S
C53          C59   1.536       .  S
C53          C57   1.548       .  S
C53         C641   1.546       .  S
C54          H61   1.086       .  S
C54          C55   1.368       .  D
C55          C56   1.544   1_455  S
C55         C598   1.490       .  S
C56          C60   1.539       .  S
C56          C58   1.539       .  S
C56          H62   1.111       .  S
C57          H63   1.075       .  S
C57          C58   1.367       .  D
C58         C608   1.485       .  S
C59          H64   1.087       .  S
C59          C60   1.363       .  D
C60         C648   1.480       .  S
O65         Ni73   1.914       .  S
O65          C75   1.280   1_565  A
O66         Ni73   1.912       .  S
O66          C76   1.281       .  A
O67         Ni73   1.923   1_545  S
O67          C77   1.282       .  A
O68         Ni73   1.925       .  S
O68          C78   1.284       .  A
O69         Ni74   1.911   1_565  S
O69          C78   1.279       .  A
O70         Ni74   1.914       .  S
O70          C77   1.282       .  A
O71         Ni74   1.917   1_565  S
O71          C76   1.280       .  A
O72         Ni74   1.915       .  S
O72          C75   1.282       .  A
Ni73        Ni74   2.386   1_565  S
C75         C588   1.476       .  S
C76         C578   1.475       .  S
C77         C558   1.492       .  S
C78         C571   1.486       .  S
O79         Ni87   1.922       .  S
O79          C89   1.284       .  A
O80         Ni87   1.920       .  S
O80          C90   1.281       .  A
O81         Ni87   1.910       .  S
O81          C91   1.281       .  A
O82         Ni87   1.911       .  S
O82          C92   1.278       .  A
O83         Ni88   1.919       .  S
O83          C92   1.283       .  A
O84         Ni88   1.918       .  S
O84          C91   1.280       .  A
O85         Ni88   1.916       .  S
O85          C90   1.283       .  A
O86         Ni88   1.913       .  S
O86          C89   1.279       .  A
Ni87        Ni88   2.390       .  S
C89         C531   1.478       .  S
C90         C538   1.481       .  S
C91         C521   1.472       .  S
C92         C551   1.470       .  S
C93         C511   1.489       .  S
C93          N94   1.370       .  A
C93          N98   1.365       .  A
N94          C95   1.364       .  A
C95         C561   1.482       .  S
C95          N96   1.350       .  A
N96          C97   1.347       .  A
C97         C518   1.463       .  S
C97          N98   1.355       .  A
C99         C501   1.488       .  S
C99         N100   1.364       .  A
C99         N104   1.366       .  A
N100        C101   1.356       .  A
C101        C591   1.463       .  S
C101        N102   1.350       .  A
N102        C103   1.351       .  A
C103        C528   1.470       .  S
C103        N104   1.359       .  A
C105        C601   1.473       .  S
C105        N106   1.364       .  A
C105        N110   1.365       .  A
N106        C107   1.358       .  A
C107        C581   1.465       .  S
C107        N108   1.349       .  A
N108        C109   1.350       .  A
C109        C541   1.471       .  S
C109        N110   1.360       .  A
C111        C611   1.493       .  S
C111        N112   1.367       .  A
C111        N116   1.368       .  A
N112        C113   1.359       .  A
C113        C548   1.462       .  S
C113        N114   1.348       .  A
N114        C115   1.347       .  A
C115        C568   1.470       .  S
C115        N116   1.359       .  A
O117       Ni125   1.920       .  S
O117        C127   1.283       .  A
O118       Ni125   1.917       .  S
O118        C128   1.280       .  A
O119       Ni125   1.915       .  S
O119        C129   1.282       .  A
O120       Ni125   1.918       .  S
O120        C130   1.280       .  A
O121       Ni126   1.909       .  S
O121        C130   1.281       .  A
O122       Ni126   1.912       .  S
O122        C129   1.280       .  A
O123       Ni126   1.905       .  S
O123        C128   1.281       .  A
O124       Ni126   1.909       .  S
O124        C127   1.279       .  A
Ni125      Ni126   2.386       .  S
C127        C468   1.485       .  S
C128        C478   1.479       .  S
C129        C488   1.480       .  S
C130        C458   1.474       .  S
O131       Ni139   1.921       .  S
O131        C141   1.281       .  A
O132       Ni139   1.922       .  S
O132        C142   1.284       .  A
O133       Ni139   1.916       .  S
O133        C143   1.279       .  A
O134       Ni139   1.916       .  S
O134        C144   1.282       .  A
O135       Ni140   1.912       .  S
O135        C144   1.279       .  A
O136       Ni140   1.912       .  S
O136        C143   1.281       .  A
O137       Ni140   1.917       .  S
O137        C142   1.280       .  A
O138       Ni140   1.919       .  S
O138        C141   1.283       .  A
Ni139      Ni140   2.388       .  S
C141        C418   1.482       .  S
C142        C428   1.487       .  S
C143        C441   1.468       .  S
C144        C451   1.479       .  S
C145        C408   1.488       .  S
C145        N146   1.365   1_655  A
C145        N150   1.366       .  A
N146        C147   1.357   1_545  A
C147        C438   1.459       .  S
C147        N148   1.347       .  A
N148        C149   1.347   1_455  A
C149        C491   1.463       .  S
C149        N150   1.357   1_565  A
C151        C398   1.471       .  S
C151        N152   1.363       .  A
C151        N156   1.365       .  A
N152        C153   1.356       .  A
C153        C461   1.462       .  S
C153        N154   1.348       .  A
N154        C155   1.349       .  A
C155        C448   1.464       .  S
C155        N156   1.361       .  A
C157        C388   1.477       .  S
C157        N158   1.365   1_455  A
C157        N162   1.368       .  A
N158        C159   1.358       .  A
C159        C471   1.473       .  S
C159        N160   1.347   1_655  A
N160        C161   1.348       .  A
C161        C421   1.473       .  S
C161        N162   1.363       .  A
C163        C378   1.489       .  S
C163        N164   1.365       .  A
C163        N168   1.369       .  A
N164        C165   1.353   1_545  A
C165        C481   1.467       .  S
C165        N166   1.347       .  A
N166        C167   1.349       .  A
C167        C431   1.472       .  S
C167        N168   1.364   1_565  A
C169        C170   1.546       .  S
C169        C175   1.537       .  S
C169        C173   1.533       .  S
C169        C498   1.542       .  S
C170        H177   1.079       .  S
C170        C171   1.372       .  D
C171        C172   1.546   1_655  S
C171        C391   1.501       .  S
C172        C176   1.540       .  S
C172        C174   1.542   1_455  S
C172        H178   1.109       .  S
C173        H179   1.086       .  S
C173        C174   1.364       .  D
C174        C411   1.482       .  S
C175        H180   1.087       .  S
C175        C176   1.362   1_655  D
C176        C508   1.487       .  S
O181       Ni189   1.914   1_654  S
O181        C191   1.282       .  A
O182       Ni189   1.919       .  S
O182        C192   1.281       .  A
O183       Ni189   1.916   1_554  S
O183        C193   1.282       .  A
O184       Ni189   1.916   1_655  S
O184        C194   1.280       .  A
O185       Ni190   1.911   1_655  S
O185        C194   1.281   1_554  A
O186       Ni190   1.915       .  S
O186        C193   1.280       .  A
O187       Ni190   1.923       .  S
O187        C192   1.284   1_554  A
O188       Ni190   1.924   1_655  S
O188        C191   1.282       .  A
Ni189      Ni190   2.382   1_556  S
C191        C368   1.489       .  S
C192        C351   1.490       .  S
C193        C341   1.487       .  S
C194        C358   1.484       .  S
O195       Ni203   1.922   1_645  S
O195        C205   1.281       .  A
O196       Ni203   1.924   1_556  S
O196        C206   1.284       .  A
O197       Ni203   1.913   1_545  S
O197        C207   1.279       .  A
O198       Ni203   1.916   1_656  S
O198        C208   1.282       .  A
O199       Ni204   1.922   1_655  S
O199        C208   1.280   1_545  A
O200       Ni204   1.917   1_554  S
O200        C207   1.283       .  A
O201       Ni204   1.915       .  S
O201        C206   1.279   1_545  A
O202       Ni204   1.914   1_654  S
O202        C205   1.283       .  A
Ni203      Ni204   2.388   1_564  S
C205        C301   1.485       .  S
C206        C331   1.479       .  S
C207        C308   1.475       .  S
C208        C321   1.476       .  S
C209        C288   1.501       .  S
C209        N210   1.371       .  A
C209        N214   1.369       .  A
N210        C211   1.362       .  A
C211        C298   1.475       .  S
C211        N212   1.349       .  A
N212        C213   1.346       .  A
C213        C371   1.476       .  S
C213        N214   1.357       .  A
C215        C278   1.500       .  S
C215        N216   1.369       .  A
C215        N220   1.369       .  A
N216        C217   1.360       .  A
C217        C348   1.476       .  S
C217        N218   1.347       .  A
N218        C219   1.349       .  A
C219        C328   1.469       .  S
C219        N220   1.360       .  A
C221        C268   1.488       .  S
C221        N222   1.368       .  A
C221        N226   1.367       .  A
N222        C223   1.361       .  A
C223        C338   1.473       .  S
C223        N224   1.348       .  A
N224        C225   1.347       .  A
C225        C311   1.465       .  S
C225        N226   1.357       .  A
C227        C258   1.498       .  S
C227        N228   1.364       .  A
C227        N232   1.370       .  A
N228        C229   1.354       .  A
C229        C361   1.467       .  S
C229        N230   1.347       .  A
N230        C231   1.349       .  A
C231        C318   1.468       .  S
C231        N232   1.364       .  A
C233        C234   1.543       .  S
C233        C239   1.534       .  S
C233        C237   1.537       .  S
C233        C291   1.544       .  S
C234        H241   1.081       .  S
C234        C235   1.365       .  D
C235        C236   1.539       .  S
C235        C401   1.487       .  S
C236        C240   1.539       .  S
C236        C238   1.543       .  S
C236        H242   1.110       .  S
C237        H243   1.086       .  S
C237        C238   1.371       .  D
C238        C381   1.487       .  S
C239        H244   1.087       .  S
C239        C240   1.366       .  D
C240        C271   1.482       .  S
C245        C246   1.544       .  S
C245        C251   1.533       .  S
C245        C249   1.543       .  S
C245        C631   1.545       .  S
C246        H253   1.085       .  S
C246        C247   1.372       .  D
C247        C248   1.541       .  S
C247        C261   1.491       .  S
C248        C252   1.540       .  S
C248        C250   1.544       .  S
C248        H254   1.109       .  S
C249        H255   1.082       .  S
C249        C250   1.368       .  D
C250        C281   1.498       .  S
C251        H256   1.087       .  S
C251        C252   1.362       .  D
C252        C621   1.479       .  S
C257        C258   1.413       .  A
C257        C262   1.406       .  A
C257        F264   1.357       .  S
C258        C259   1.415       .  A
C259        C260   1.396       .  A
C259        F266   1.358       .  S
C260        C261   1.404       .  A
C260        F265   1.358       .  S
C261        C262   1.408       .  A
C262        F263   1.357       .  S
C267        C268   1.411       .  A
C267        C272   1.398       .  A
C267        F274   1.358       .  S
C268        C269   1.411       .  A
C269        C270   1.404       .  A
C269        F276   1.358       .  S
C270        C271   1.404       .  A
C270        F275   1.358       .  S
C271        C272   1.403       .  A
C272        F273   1.358       .  S
C277        C278   1.412       .  A
C277        C282   1.399       .  A
C277        F284   1.358       .  S
C278        C279   1.414       .  A
C279        C280   1.405       .  A
C279        F286   1.357       .  S
C280        C281   1.407       .  A
C280        F285   1.356       .  S
C281        C282   1.409       .  A
C282        F283   1.358       .  S
C287        C288   1.410       .  A
C287        C292   1.398       .  A
C287        F294   1.358       .  S
C288        C289   1.411       .  A
C289        C290   1.405       .  A
C289        F296   1.357       .  S
C290        C291   1.416       .  A
C290        F295   1.358       .  S
C291        C292   1.417       .  A
C292        F293   1.354       .  S
C297        C298   1.405       .  A
C297        C302   1.391       .  A
C297        F304   1.359       .  S
C298        C299   1.405       .  A
C299        C300   1.407       .  A
C299        F306   1.357       .  S
C300        C301   1.413       .  A
C300        F305   1.357       .  S
C301        C302   1.406       .  A
C302        F303   1.358   1_554  S
C307        C308   1.410       .  A
C307        C312   1.403       .  A
C307        F314   1.358       .  S
C308        C309   1.404       .  A
C309        C310   1.393       .  A
C309        F316   1.358       .  S
C310        C311   1.403       .  A
C310        F315   1.358       .  S
C311        C312   1.403       .  A
C312        F313   1.358       .  S
C317        C318   1.406       .  A
C317        C322   1.405       .  A
C317        F324   1.358       .  S
C318        C319   1.404       .  A
C319        C320   1.396       .  A
C319        F326   1.358       .  S
C320        C321   1.405       .  A
C320        F325   1.358   1_556  S
C321        C322   1.406       .  A
C322        F323   1.358       .  S
C327        C328   1.404       .  A
C327        C332   1.395       .  A
C327        F334   1.358       .  S
C328        C329   1.404       .  A
C329        C330   1.404       .  A
C329        F336   1.358       .  S
C330        C331   1.409       .  A
C330        F335   1.358       .  S
C331        C332   1.405       .  A
C332        F333   1.358   1_556  S
C337        C338   1.402       .  A
C337        C342   1.403       .  A
C337        F344   1.357       .  S
C338        C339   1.406       .  A
C339        C340   1.393       .  A
C339        F346   1.359       .  S
C340        C341   1.408       .  A
C340        F345   1.358   1_554  S
C341        C342   1.414       .  A
C342        F343   1.357       .  S
C347        C348   1.403       .  A
C347        C352   1.405       .  A
C347        F354   1.358       .  S
C348        C349   1.405       .  A
C349        C350   1.396       .  A
C349        F356   1.359       .  S
C350        C351   1.409       .  A
C350        F355   1.358   1_556  S
C351        C352   1.414       .  A
C352        F353   1.358       .  S
C357        C358   1.413       .  A
C357        C362   1.401       .  A
C357        F364   1.358       .  S
C358        C359   1.410       .  A
C359        C360   1.393       .  A
C359        F366   1.358   1_556  S
C360        C361   1.402       .  A
C360        F365   1.359       .  S
C361        C362   1.402       .  A
C362        F363   1.358       .  S
C367        C368   1.409       .  A
C367        C372   1.393       .  A
C367        F374   1.358   1_554  S
C368        C369   1.414       .  A
C369        C370   1.406       .  A
C369        F376   1.357       .  S
C370        C371   1.404       .  A
C370        F375   1.357       .  S
C371        C372   1.405       .  A
C372        F373   1.359       .  S
C377        C378   1.411       .  A
C377        C382   1.406       .  A
C377        F384   1.357       .  S
C378        C379   1.410       .  A
C379        C380   1.394       .  A
C379        F386   1.358       .  S
C380        C381   1.404       .  A
C380        F385   1.358       .  S
C381        C382   1.407       .  A
C382        F383   1.357       .  S
C387        C388   1.403       .  A
C387        C392   1.404       .  A
C387        F394   1.358       .  S
C388        C389   1.401   1_455  A
C389        C390   1.399       .  A
C389        F396   1.358       .  S
C390        C391   1.414       .  A
C390        F395   1.358       .  S
C391        C392   1.413   1_655  A
C392        F393   1.357       .  S
C397        C398   1.400       .  A
C397        C402   1.396       .  A
C397        F404   1.358       .  S
C398        C399   1.406       .  A
C399        C400   1.405       .  A
C399        F406   1.358       .  S
C400        C401   1.408       .  A
C400        F405   1.358       .  S
C401        C402   1.409       .  A
C402        F403   1.358       .  S
C407        C408   1.409       .  A
C407        C412   1.396       .  A
C407        F414   1.358       .  S
C408        C409   1.413   1_655  A
C409        C410   1.402       .  A
C409        F416   1.358       .  S
C410        C411   1.403   1_455  A
C410        F415   1.358       .  S
C411        C412   1.405       .  A
C412        F413   1.358       .  S
C417        C418   1.406       .  A
C417        C422   1.395       .  A
C417        F424   1.358       .  S
C418        C419   1.409       .  A
C419        C420   1.405       .  A
C419        F426   1.357       .  S
C420        C421   1.405       .  A
C420        F425   1.358       .  S
C421        C422   1.405       .  A
C422        F423   1.359       .  S
C427        C428   1.408       .  A
C427        C432   1.396       .  A
C427        F434   1.358       .  S
C428        C429   1.413       .  A
C429        C430   1.404       .  A
C429        F436   1.357       .  S
C430        C431   1.403       .  A
C430        F435   1.358       .  S
C431        C432   1.405       .  A
C432        F433   1.359       .  S
C437        C438   1.405       .  A
C437        C442   1.400       .  A
C437        F444   1.358       .  S
C438        C439   1.401       .  A
C439        C440   1.394       .  A
C439        F446   1.358       .  S
C440        C441   1.405       .  A
C440        F445   1.358       .  S
C441        C442   1.404       .  A
C442        F443   1.358       .  S
C447        C448   1.403       .  A
C447        C452   1.402       .  A
C447        F454   1.358       .  S
C448        C449   1.402       .  A
C449        C450   1.394       .  A
C449        F456   1.358       .  S
C450        C451   1.407       .  A
C450        F455   1.358       .  S
C451        C452   1.410       .  A
C452        F453   1.358       .  S
C457        C458   1.409       .  A
C457        C462   1.402       .  A
C457        F464   1.358       .  S
C458        C459   1.406       .  A
C459        C460   1.393       .  A
C459        F466   1.358       .  S
C460        C461   1.401       .  A
C460        F465   1.358       .  S
C461        C462   1.403       .  A
C462        F463   1.358       .  S
C467        C468   1.414       .  A
C467        C472   1.401       .  A
C467        F474   1.358       .  S
C468        C469   1.408       .  A
C469        C470   1.394       .  A
C469        F476   1.358       .  S
C470        C471   1.406       .  A
C470        F475   1.359       .  S
C471        C472   1.403       .  A
C472        F473   1.358       .  S
C477        C478   1.411       .  A
C477        C482   1.403       .  A
C477        F484   1.358       .  S
C478        C479   1.408       .  A
C479        C480   1.389       .  A
C479        F486   1.358       .  S
C480        C481   1.402       .  A
C480        F485   1.359       .  S
C481        C482   1.404       .  A
C482        F483   1.358       .  S
C487        C488   1.409       .  A
C487        C492   1.395       .  A
C487        F494   1.358       .  S
C488        C489   1.410       .  A
C489        C490   1.400       .  A
C489        F496   1.358       .  S
C490        C491   1.401       .  A
C490        F495   1.358       .  S
C491        C492   1.402       .  A
C492        F493   1.358       .  S
C497        C498   1.419       .  A
C497        C502   1.401       .  A
C497        F504   1.351       .  S
C498        C499   1.415       .  A
C499        C500   1.396       .  A
C499        F506   1.359       .  S
C500        C501   1.406       .  A
C500        F505   1.358       .  S
C501        C502   1.405       .  A
C502        F503   1.358       .  S
C507        C508   1.403       .  A
C507        C512   1.402       .  A
C507        F514   1.358       .  S
C508        C509   1.408       .  A
C509        C510   1.402       .  A
C509        F516   1.358       .  S
C510        C511   1.409       .  A
C510        F515   1.358       .  S
C511        C512   1.411       .  A
C512        F513   1.358       .  S
C517        C518   1.402       .  A
C517        C522   1.393       .  A
C517        F524   1.358       .  S
C518        C519   1.404       .  A
C519        C520   1.403       .  A
C519        F526   1.358       .  S
C520        C521   1.407       .  A
C520        F525   1.358       .  S
C521        C522   1.404       .  A
C522        F523   1.358       .  S
C527        C528   1.404       .  A
C527        C532   1.395       .  A
C527        F534   1.358       .  S
C528        C529   1.404       .  A
C529        C530   1.404       .  A
C529        F536   1.358       .  S
C530        C531   1.410       .  A
C530        F535   1.358       .  S
C531        C532   1.405       .  A
C532        F533   1.358       .  S
C537        C538   1.410       .  A
C537        C542   1.405       .  A
C537        F544   1.358       .  S
C538        C539   1.406       .  A
C539        C540   1.394       .  A
C539        F546   1.358       .  S
C540        C541   1.403       .  A
C540        F545   1.358       .  S
C541        C542   1.405       .  A
C542        F543   1.358       .  S
C547        C548   1.402       .  A
C547        C552   1.395       .  A
C547        F554   1.358       .  S
C548        C549   1.405       .  A
C549        C550   1.401       .  A
C549        F556   1.358       .  S
C550        C551   1.406       .  A
C550        F555   1.358       .  S
C551        C552   1.403       .  A
C552        F553   1.358       .  S
C557        C558   1.415       .  A
C557        C562   1.406       .  A
C557        F564   1.357       .  S
C558        C559   1.410       .  A
C559        C560   1.393       .  A
C559        F566   1.358       .  S
C560        C561   1.408       .  A
C560        F565   1.359       .  S
C561        C562   1.404       .  A
C562        F563   1.357       .  S
C567        C568   1.401       .  A
C567        C572   1.402       .  A
C567        F574   1.358       .  S
C568        C569   1.405       .  A
C569        C570   1.396       .  A
C569        F576   1.359       .  S
C570        C571   1.408       .  A
C570        F575   1.358       .  S
C571        C572   1.414       .  A
C572        F573   1.358       .  S
C577        C578   1.407       .  A
C577        C582   1.401       .  A
C577        F584   1.358       .  S
C578        C579   1.406       .  A
C579        C580   1.396       .  A
C579        F586   1.358       .  S
C580        C581   1.403       .  A
C580        F585   1.358       .  S
C581        C582   1.404       .  A
C582        F583   1.358       .  S
C587        C588   1.407       .  A
C587        C592   1.395       .  A
C587        F594   1.358       .  S
C588        C589   1.409       .  A
C589        C590   1.400       .  A
C589        F596   1.358       .  S
C590        C591   1.402       .  A
C590        F595   1.358       .  S
C591        C592   1.402       .  A
C592        F593   1.358       .  S
C597        C598   1.410       .  A
C597        C602   1.399       .  A
C597        F604   1.358       .  S
C598        C599   1.409       .  A
C599        C600   1.404       .  A
C599        F606   1.358       .  S
C600        C601   1.405       .  A
C600        F605   1.358       .  S
C601        C602   1.400       .  A
C602        F603   1.358       .  S
C607        C608   1.403       .  A
C607        C612   1.399       .  A
C607        F614   1.358       .  S
C608        C609   1.403       .  A
C609        C610   1.404       .  A
C609        F616   1.357       .  S
C610        C611   1.413       .  A
C610        F615   1.358       .  S
C611        C612   1.411       .  A
C612        F613   1.358       .  S
C617        C618   1.415       .  A
C617        C622   1.400       .  A
C617        F624   1.357       .  S
C618        C619   1.415       .  A
C619        C620   1.402       .  A
C619        F626   1.358       .  S
C620        C621   1.402       .  A
C620        F625   1.358       .  S
C621        C622   1.399       .  A
C622        F623   1.357       .  S
C627        C628   1.409       .  A
C627        C632   1.399       .  A
C627        F634   1.358       .  S
C628        C629   1.412       .  A
C629        C630   1.404       .  A
C629        F636   1.358       .  S
C630        C631   1.416       .  A
C630        F635   1.357       .  S
C631        C632   1.417       .  A
C632        F633   1.356       .  S
C637        C638   1.405   1_455  A
C637        C642   1.402       .  A
C637        F644   1.358       .  S
C638        C639   1.407       .  A
C639        C640   1.401       .  A
C639        F646   1.358       .  S
C640        C641   1.418       .  A
C640        F645   1.351       .  S
C641        C642   1.418   1_655  A
C642        F643   1.359       .  S
C647        C648   1.403   1_455  A
C647        C652   1.405       .  A
C647        F654   1.358       .  S
C648        C649   1.400       .  A
C649        C650   1.397       .  A
C649        F656   1.358       .  S
C650        C651   1.414       .  A
C650        F655   1.358       .  S
C651        C652   1.414   1_655  A
C652        F653   1.357       .  S
C657        C658   1.406       .  A
C657        C662   1.397       .  A
C657        F664   1.358       .  S
C658        C659   1.409       .  A
C659        C660   1.402       .  A
C659        F666   1.358       .  S
C660        C661   1.404       .  A
C660        F665   1.358       .  S
C661        C662   1.405       .  A
C662        F663   1.358       .  S
C667        C668   1.405       .  A
C667        C672   1.393       .  A
C667        F674   1.358       .  S
C668        C669   1.411       .  A
C669        C670   1.403       .  A
C669        F676   1.358       .  S
C670        C671   1.402       .  A
C670        F675   1.358       .  S
C671        C672   1.402       .  A
C672        F673   1.359       .  S
C677        C678   1.402       .  A
C677        C682   1.393       .  A
C677        F684   1.358       .  S
C678        C679   1.404       .  A
C679        C680   1.405       .  A
C679        F686   1.358       .  S
C680        C681   1.411       .  A
C680        F685   1.358       .  S
C681        C682   1.405       .  A
C682        F683   1.358       .  S
C687        C688   1.410       .  A
C687        C692   1.402       .  A
C687        F694   1.358       .  S
C688        C689   1.406       .  A
C689        C690   1.396       .  A
C689        F696   1.358       .  S
C690        C691   1.405       .  A
C690        F695   1.358       .  S
C691        C692   1.403       .  A
C692        F693   1.358       .  S
C697        C698   1.405       .  A
C697        C702   1.403       .  A
C697        F704   1.358       .  S
C698        C699   1.404       .  A
C699        C700   1.397       .  A
C699        F706   1.358       .  S
C700        C701   1.406       .  A
C700        F705   1.358       .  S
C701        C702   1.409       .  A
C702        F703   1.358       .  S
C707        C708   1.404       .  A
C707        C712   1.394       .  A
C707        F714   1.359       .  S
C708        C709   1.402       .  A
C709        C710   1.404       .  A
C709        F716   1.357       .  S
C710        C711   1.411       .  A
C710        F715   1.358       .  S
C711        C712   1.407       .  A
C712        F713   1.358       .  S
C717        C718   1.405       .  A
C717        C722   1.395       .  A
C717        F724   1.358       .  S
C718        C719   1.405       .  A
C719        C720   1.406       .  A
C719        F726   1.358       .  S
C720        C721   1.412       .  A
C720        F725   1.358       .  S
C721        C722   1.406       .  A
C722        F723   1.358       .  S
C727        C728   1.402       .  A
C727        C732   1.403       .  A
C727        F734   1.358       .  S
C728        C729   1.403       .  A
C729        C730   1.395       .  A
C729        F736   1.358       .  S
C730        C731   1.405       .  A
C730        F735   1.358       .  S
C731        C732   1.410       .  A
C732        F733   1.358       .  S
