geometry optimzed in LAMMPS
_audit_creation_date              2020-11-30 
_audit_creation_method            'lammps2cif' 
_symmetry_space_group_name_H-M    'P1' 
_symmetry_Int_Tables_number       1 
_symmetry_cell_setting            triclinic 
loop_ 
_symmetry_equiv_pos_as_xyz 
  x,y,z 
_cell_length_a                    24.351217567120802 
_cell_length_b                    24.581612885069855 
_cell_length_c                    42.605070921998234 
_cell_angle_alpha                 91.05868948128798 
_cell_angle_beta                  89.58972771812229 
_cell_angle_gamma                 94.01160262465595 
loop_ 
_atom_site_label 
_atom_site_type_symbol 
_atom_site_fract_x 
_atom_site_fract_y 
_atom_site_fract_z 
_atom_site_charge 
O1          O  0.20590559  0.11418523  0.18216573    -0.80680
O2          O  0.25933817  0.17264824  0.07154851    -0.80700
O3          O  0.27747041  0.21260492  0.15897611    -0.80710
O4          O  0.18530258  0.12912287  0.10685264    -0.80650
O5          O  0.32293043  0.22418065  0.11482719    -0.80780
O6          O  0.16111323  0.06220657  0.13692630    -0.80700
O7          O  0.22127424  0.09858433  0.04915710    -0.80680
O8          O  0.27820258  0.13682860  0.20808660    -0.80720
C9          C  0.22746646  0.12475158  0.20783345     1.09010
C10         C  0.23742805  0.14904956  0.04740189     1.08890
C11         C  0.29236585  0.24222083  0.13621436     1.09030
C12         C  0.14855029  0.10372789  0.12235995     1.08910
O13         O  0.25342712  0.99076823  0.13410679    -0.80680
O14         O  0.39544123  0.13178986  0.11129670    -0.80760
O15         O  0.36699171  0.09105496  0.17907555    -0.80690
O16         O  0.29702414  0.03107899  0.07693136    -0.80670
O17         O  0.34434258  0.09897384  0.05879782    -0.80730
O18         O  0.29311242  0.03618437  0.18857941    -0.80690
O19         O  0.19918530  0.00804788  0.09612771    -0.80650
O20         O  0.39162119  0.18864855  0.14975962    -0.80720
Co21       Co  0.23335562  0.05380463  0.15827987     1.51530
Co22       Co  0.32610105  0.15054104  0.09390324     1.51690
Co23       Co  0.32258878  0.15146186  0.16842383     1.51570
Co24       Co  0.24364312  0.08310315  0.09209079     1.51470
O25         O  0.28636840  0.10295172  0.13099269    -1.42610
C26         C  0.21657576  0.97360701  0.11534161     1.08940
C27         C  0.41884774  0.16856941  0.12768134     1.09030
C28         C  0.34366811  0.05098298  0.19326552     1.08960
C29         C  0.33006448  0.04927887  0.05674502     1.08940
O30         O  0.28575313  0.50658179  0.13192394    -0.80680
O31         O  0.23326772  0.66220323  0.06398199    -0.80700
O32         O  0.21165424  0.52962354  0.08337344    -0.80710
O33         O  0.34108706  0.66944168  0.11183559    -0.80650
O34         O  0.15817698  0.57885216  0.06025016    -0.80780
O35         O  0.34951047  0.60227398  0.14527207    -0.80700
O36         O  0.26165557  0.73317820  0.09097022    -0.80680
O37         O  0.19827194  0.48421249  0.13542868    -0.80720
C38         C  0.24700926  0.46974821  0.13276650     1.09010
C39         C  0.24897980  0.71159874  0.06464543     1.08890
C40         C  0.18503586  0.53775891  0.05957874     1.09030
C41         C  0.37009819  0.63831071  0.12657010     1.08910
O42         O  0.25914282  0.62692556  0.18919449    -0.80680
O43         O  0.10230108  0.61196700  0.11457027    -0.80760
O44         O  0.14684494  0.57989925  0.16264088    -0.80690
O45         O  0.21150009  0.72586985  0.15195776    -0.80670
O46         O  0.16238182  0.71411132  0.10919762    -0.80730
O47         O  0.21030537  0.53489615  0.18311158    -0.80690
O48         O  0.31511755  0.68996070  0.17487279    -0.80650
O49         O  0.10681761  0.52219189  0.11211421    -0.80720
Co50       Co  0.27400863  0.57074551  0.15910986     1.51530
Co51       Co  0.17258695  0.63849828  0.09212813     1.51690
Co52       Co  0.17726816  0.55797241  0.12158365     1.51570
Co53       Co  0.27643367  0.69578052  0.13215852     1.51470
O54         O  0.23578952  0.61551457  0.12506723    -1.42610
C55         C  0.30042259  0.65602465  0.19553820     1.08940
C56         C  0.07853230  0.56348870  0.11292710     1.09030
C57         C  0.16440959  0.55519036  0.18543800     1.08960
C58         C  0.17826120  0.74369853  0.13255671     1.08940
O59         O  0.88691397  0.12281268  0.11600857    -0.80680
O60         O  0.70544148  0.13709407  0.18664596    -0.80700
O61         O  0.85966370  0.16876636  0.16801214    -0.80710
O62         O  0.71346667  0.04498685  0.13400277    -0.80650
O63         O  0.79605607  0.20892252  0.19479800    -0.80780
O64         O  0.80269470  0.04929972  0.13309169    -0.80700
O65         O  0.64185885  0.11527528  0.15173222    -0.80680
O66         O  0.91145296  0.21134131  0.11603765    -0.80720
C67         C  0.92454166  0.16242566  0.11541799     1.09010
C68         C  0.65655488  0.12056914  0.18050832     1.08890
C69         C  0.84266894  0.18910875  0.19339684     1.09030
C70         C  0.75785765  0.02334115  0.13887350     1.08910
O71         O  0.73942229  0.07481946  0.07634670    -0.80680
O72         O  0.74957790  0.27594124  0.14807266    -0.80760
O73         O  0.81470890  0.23119219  0.08885631    -0.80690
O74         O  0.67337832  0.18377603  0.09769364    -0.80670
O75         O  0.65946585  0.21412189  0.14548927    -0.80730
O76         O  0.81849676  0.15364436  0.06476321    -0.80690
O77         O  0.64993900  0.07326854  0.08697487    -0.80650
O78         O  0.83834020  0.27214364  0.14582227    -0.80720
Co79       Co  0.80729991  0.10571409  0.10147114     1.51530
Co80       Co  0.73046048  0.20553996  0.16703600     1.51690
Co81       Co  0.83622289  0.19696413  0.12719578     1.51570
Co82       Co  0.69799353  0.11617608  0.11519586     1.51470
O83         O  0.76368434  0.15935292  0.13260184    -1.42610
C84         C  0.68906401  0.06154043  0.06850027     1.08940
C85         C  0.79647798  0.29913692  0.14474202     1.09030
C86         C  0.81772093  0.20453768  0.06378841     1.08960
C87         C  0.64492444  0.20956039  0.11702622     1.08940
O88         O  0.83321034  0.61641787  0.08687168    -0.80680
O89         O  0.69308132  0.61079225  0.18367074    -0.80700
O90         O  0.85603029  0.72280421  0.15884229    -0.80710
O91         O  0.73780670  0.54474104  0.14684767    -0.80650
O92         O  0.78442273  0.69030316  0.18821561    -0.80780
O93         O  0.75583910  0.53872544  0.09632215    -0.80700
O94         O  0.62568802  0.55709449  0.16719185    -0.80680
O95         O  0.83305955  0.62018298  0.13762359    -0.80720
C96         C  0.85567472  0.60626208  0.11232576     1.09010
C97         C  0.64435816  0.59050006  0.18850086     1.08890
C98         C  0.83537417  0.70983128  0.18549232     1.09030
C99         C  0.75834847  0.52001031  0.12388646     1.08910
O100        O  0.67550237  0.60731813  0.06931229    -0.80680
O101        O  0.71024532  0.76436803  0.16170181    -0.80760
O102        O  0.83175179  0.71388307  0.09261201    -0.80690
O103        O  0.61783665  0.62836690  0.11961796    -0.80670
O104        O  0.62716826  0.69117313  0.15602508    -0.80730
O105        O  0.75901099  0.68818396  0.06345683    -0.80690
O106        O  0.65453394  0.53798876  0.09809904    -0.80650
O107        O  0.77525672  0.76440061  0.12759808    -0.80720
Co108      Co  0.75316284  0.61582863  0.08101779     1.51530
Co109      Co  0.70616300  0.68577430  0.16811099     1.51690
Co110      Co  0.79822301  0.69018606  0.13444903     1.51570
Co111      Co  0.67741743  0.58957304  0.13500444     1.51470
O112        O  0.72850253  0.65340330  0.12173772    -1.42610
C113        C  0.65793998  0.55803426  0.07071530     1.08940
C114        C  0.74250932  0.78996779  0.14378132     1.09030
C115        C  0.80367352  0.71688065  0.06748030     1.08960
C116        C  0.59967342  0.66758370  0.13403502     1.08940
O117        O  0.27972924  0.34960066  0.95041803    -0.80680
O118        O  0.26001487  0.31164097  0.80745795    -0.80700
O119        O  0.16132665  0.26520991  0.89669371    -0.80710
O120        O  0.35778926  0.43883609  0.86686825    -0.80650
O121        O  0.21050865  0.25126115  0.85442122    -0.80780
O122        O  0.34900510  0.38255834  0.90486897    -0.80700
O123        O  0.33046173  0.35061343  0.83184065    -0.80680
O124        O  0.25007622  0.28786750  0.91978439    -0.80720
C125        C  0.26897021  0.29984403  0.94586713     1.09010
C126        C  0.31158715  0.32562345  0.80833453     1.08890
C127        C  0.18676390  0.23313224  0.87872772     1.09030
C128        C  0.37889862  0.40589237  0.88473599     1.08910
O129        O  0.28294650  0.48164682  0.89858043    -0.80680
O130        O  0.11991664  0.32101380  0.85840241    -0.80760
O131        O  0.16372773  0.34466362  0.94809053    -0.80690
O132        O  0.24828966  0.40858749  0.79932496    -0.80670
O133        O  0.17436839  0.39099997  0.82394143    -0.80730
O134        O  0.20256672  0.42413582  0.93316193    -0.80690
O135        O  0.25071715  0.47784207  0.85073807    -0.80650
O136        O  0.13858981  0.38636800  0.89154092    -0.80720
Co137      Co  0.27547859  0.40462654  0.91570728     1.51530
Co138      Co  0.19540643  0.32125742  0.83862018     1.51690
Co139      Co  0.19716532  0.34084740  0.90659088     1.52370
Co140      Co  0.29151897  0.41473663  0.84077185     1.51470
O141        O  0.24557466  0.36325634  0.87215609    -1.42610
C142        C  0.26166531  0.50453008  0.87543684     1.08940
C143        C  0.10434579  0.36142488  0.87386310     1.09030
C144        C  0.17648729  0.39514002  0.95391223     1.08960
C145        C  0.19678047  0.40142082  0.79872260     1.08940
O146        O  0.29326763  0.94541072  0.91720273    -0.80680
O147        O  0.34590874  0.88847239  0.81173633    -0.80700
O148        O  0.38236715  0.85674660  0.87918214    -0.80710
O149        O  0.25245546  0.99638861  0.86379048    -0.80650
O150        O  0.36570960  0.79774668  0.84146442    -0.80780
O151        O  0.20092216  0.97175649  0.90420804    -0.80700
O152        O  0.28377427  0.94903223  0.80759883    -0.80680
O153        O  0.34001429  0.88529521  0.93595629    -0.80720
C154        C  0.32508099  0.93239320  0.93800974     1.09010
C155        C  0.33042761  0.93180765  0.80050039     1.08890
C156        C  0.40005860  0.82576070  0.85818023     1.09030
C157        C  0.22394455  0.00923835  0.88737564     1.08910
O158        O  0.15567080  0.85860439  0.89158631    -0.80680
O159        O  0.24839229  0.76379636  0.84088920    -0.80760
O160        O  0.24401321  0.81344028  0.92622685    -0.80690
O161        O  0.18735774  0.86925422  0.81984053    -0.80670
O162        O  0.24689889  0.84249491  0.78884903    -0.80730
O163        O  0.21040943  0.88475015  0.94883256    -0.80690
O164        O  0.15108058  0.92886081  0.86166040    -0.80650
O165        O  0.30202248  0.76265644  0.88204535    -0.80720
Co166      Co  0.22900342  0.89587105  0.90459604     1.51530
Co167      Co  0.29564445  0.82828598  0.82643759     1.51690
Co168      Co  0.31174090  0.83709325  0.90046036     1.51570
Co169      Co  0.22382778  0.93216880  0.84007490     1.51470
O170        O  0.26925368  0.87918992  0.86473500    -1.42610
C171        C  0.12685655  0.89010899  0.87624561     1.08940
C172        C  0.26728835  0.73847035  0.86375172     1.09030
C173        C  0.22657971  0.83679893  0.95118504     1.08960
C174        C  0.20084235  0.86144698  0.79250759     1.08940
O175        O  0.79523105  0.37008506  0.95299949    -0.80680
O176        O  0.74857726  0.33242908  0.80751119    -0.80700
O177        O  0.68278459  0.25315345  0.89770763    -0.80710
O178        O  0.85429088  0.44883320  0.86443326    -0.80650
O179        O  0.73438974  0.26165981  0.85631928    -0.80780
O180        O  0.85254513  0.39012688  0.90138334    -0.80700
O181        O  0.81692878  0.36725124  0.83277433    -0.80680
O182        O  0.76662203  0.29580871  0.92936085    -0.80720
C183        C  0.79312381  0.31891946  0.95125029     1.09010
C184        C  0.79900308  0.34872487  0.80761313     1.08890
C185        C  0.71488272  0.23251161  0.87801868     1.09030
C186        C  0.87907014  0.41572961  0.88059428     1.08910
O187        O  0.79996305  0.49537036  0.90181027    -0.80680
O188        O  0.62291055  0.30642474  0.86753644    -0.80760
O189        O  0.69433928  0.37595258  0.95772222    -0.80690
O190        O  0.72279764  0.42697963  0.81079347    -0.80670
O191        O  0.65621137  0.38999995  0.83647451    -0.80730
O192        O  0.71915609  0.45061951  0.93492207    -0.80690
O193        O  0.74122171  0.49261752  0.86386163    -0.80650
O194        O  0.62905823  0.35895868  0.90851693    -0.80720
Co195      Co  0.78489168  0.41936209  0.91717772     1.51530
Co196      Co  0.69617278  0.32687946  0.84615727     1.51690
Co197      Co  0.69830289  0.32787186  0.91824581     1.51570
Co198      Co  0.77730583  0.42845033  0.84785455     1.51470
O199        O  0.73862365  0.37527972  0.88207062    -1.42610
C200        C  0.76677102  0.51916862  0.88521636     1.08940
C201        C  0.60081099  0.33881634  0.88644104     1.09030
C202        C  0.69737070  0.42742699  0.95815929     1.08960
C203        C  0.67266724  0.40956281  0.81149595     1.08940
O204        O  0.82971981  0.85190409  0.93845939    -0.80680
O205        O  0.76643189  0.78606564  0.81106828    -0.80700
O206        O  0.70796871  0.77273961  0.90610114    -0.80710
O207        O  0.86346689  0.94436900  0.84887803    -0.80650
O208        O  0.78198728  0.77359694  0.87572195    -0.80780
O209        O  0.87519404  0.89039642  0.88745179    -0.80700
O210        O  0.82770263  0.84769445  0.82838799    -0.80680
O211        O  0.74375006  0.84021964  0.95481566    -0.80720
C212        C  0.79457240  0.83428083  0.95815558     1.09010
C213        C  0.81367786  0.81118256  0.80762546     1.08890
C214        C  0.74861350  0.74902823  0.89421510     1.09030
C215        C  0.89570875  0.91850909  0.86584072     1.08910
O216        O  0.81398276  0.99224987  0.89452383    -0.80680
O217        O  0.67103550  0.79608510  0.85313042    -0.80760
O218        O  0.68621766  0.92746766  0.93191787    -0.80690
O219        O  0.77603188  0.92975635  0.79982907    -0.80670
O220        O  0.71080751  0.87876619  0.82223039    -0.80730
O221        O  0.77069664  0.94802683  0.94875500    -0.80690
O222        O  0.74927581  0.97707954  0.85849335    -0.80650
O223        O  0.64966454  0.86464280  0.88271638    -0.80720
Co224      Co  0.82001317  0.91842906  0.91517568     1.51530
Co225      Co  0.75115394  0.82791168  0.85003152     1.51690
Co226      Co  0.69981011  0.85303288  0.91652691     1.51570
Co227      Co  0.78363684  0.91115048  0.84452796     1.51470
O228        O  0.76211489  0.88004738  0.88749638    -1.42610
C229        C  0.77470462  0.00876707  0.87805206     1.08940
C230        C  0.63520073  0.82796991  0.86306041     1.09030
C231        C  0.71912079  0.95269016  0.95087329     1.08960
C232        C  0.72854652  0.90431671  0.79800857     1.08940
O233        O  0.06744293  0.34733405  0.67491506    -0.80680
O234        O  0.02279426  0.30522008  0.57188742    -0.80700
O235        O  0.98527899  0.25308961  0.64853045    -0.80710
O236        O  0.09883176  0.35128113  0.60523761    -0.80650
O237        O  0.94108615  0.25218665  0.60409656    -0.80780
O238        O  0.11475457  0.41793374  0.63817382    -0.80700
O239        O  0.05405826  0.37712723  0.54741407    -0.80680
O240        O  0.99626572  0.32330520  0.70105442    -0.80720
C241        C  0.04746858  0.33407411  0.70034267     1.09010
C242        C  0.03856949  0.32603823  0.54615955     1.08890
C243        C  0.96927847  0.22830901  0.62383378     1.09030
C244        C  0.13229580  0.37862406  0.62235313     1.08910
O245        O  0.02127075  0.48401881  0.64379781    -0.80680
O246        O  0.88216014  0.35423540  0.60099178    -0.80760
O247        O  0.90938483  0.38098544  0.67314399    -0.80690
O248        O  0.97844021  0.44223732  0.58266679    -0.80670
O249        O  0.94549783  0.38119843  0.55256552    -0.80730
O250        O  0.98011965  0.42209016  0.69550287    -0.80690
O251        O  0.06856192  0.47158996  0.60008460    -0.80650
O252        O  0.87664718  0.29702835  0.63867439    -0.80720
Co253      Co  0.04096889  0.41502895  0.66065437     1.51530
Co254      Co  0.95229363  0.32861263  0.58822764     1.51690
Co255      Co  0.94717579  0.31727382  0.66185671     1.51570
Co256      Co  0.03557915  0.39286042  0.59298245     1.51470
O257        O  0.98979102  0.36883933  0.62930374    -1.42610
C258        C  0.04492044  0.50355340  0.61948054     1.08940
C259        C  0.85469702  0.33176621  0.62232151     1.09030
C260        C  0.92890768  0.40609860  0.69630044     1.08960
C261        C  0.95724415  0.43080029  0.55714827     1.08940
O262        O  0.00013466  0.77724838  0.68960720    -0.80680
O263        O  0.91865169  0.81311723  0.57497433    -0.80700
O264        O  0.91135171  0.93532634  0.65761534    -0.80710
O265        O  0.05140775  0.76584983  0.59304747    -0.80650
O266        O  0.88627928  0.86577402  0.62836036    -0.80780
O267        O  0.98075778  0.75496645  0.62553644    -0.80700
O268        O  0.99782212  0.81982094  0.54911255    -0.80680
O269        O  0.94804859  0.84605632  0.68187640    -0.80720
C270        C  0.96025406  0.80523619  0.69839977     1.09010
C271        C  0.94837912  0.79976009  0.55211212     1.08890
C272        C  0.87271310  0.90591348  0.64454010     1.09030
C273        C  0.01568421  0.73454597  0.60738439     1.08910
O274        O  0.09079172  0.79951328  0.64412646    -0.80680
O275        O  0.94176137  0.96725906  0.60509015    -0.80760
O276        O  0.00827053  0.94125387  0.69651414    -0.80690
O277        O  0.05656365  0.92321827  0.56721818    -0.80670
O278        O  0.97003560  0.91522542  0.55285314    -0.80730
O279        O  0.05580528  0.87445452  0.67742518    -0.80690
O280        O  0.10924766  0.86838062  0.61290024    -0.80650
O281        O  0.01745744  0.97327752  0.63389009    -0.80720
Co282      Co  0.01056169  0.81735433  0.65072203     1.51530
Co283      Co  0.93090429  0.88786865  0.59185956     1.51690
Co284      Co  0.98881168  0.90806857  0.65621861     1.51570
Co285      Co  0.05183074  0.84651754  0.58257938     1.51470
O286        O  0.99593953  0.86602961  0.61533367    -1.42610
C287        C  0.12595668  0.83353412  0.63127558     1.08940
C288        C  0.98258757  0.99559889  0.61719032     1.09030
C289        C  0.05039223  0.91321837  0.69743383     1.08960
C290        C  0.01804984  0.93911031  0.55056506     1.08940
O291        O  0.41457595  0.37088845  0.67610478    -0.80680
O292        O  0.46611737  0.43127505  0.57587858    -0.80700
O293        O  0.51102966  0.48308446  0.65080012    -0.80710
O294        O  0.39561080  0.37267920  0.60707455    -0.80650
O295        O  0.55307507  0.47825729  0.60475364    -0.80780
O296        O  0.38545763  0.29799016  0.63227671    -0.80700
O297        O  0.43604769  0.36052663  0.54760392    -0.80680
O298        O  0.48450870  0.41251514  0.69974019    -0.80720
C299        C  0.43402367  0.39469789  0.69976745     1.09010
C300        C  0.44435774  0.41250715  0.55031400     1.08890
C301        C  0.52836398  0.50524508  0.62591614     1.09030
C302        C  0.36394870  0.33777342  0.62002521     1.08910
O303        O  0.49126004  0.25369566  0.63899895    -0.80680
O304        O  0.60248417  0.36817881  0.60623532    -0.80760
O305        O  0.57668269  0.35209368  0.67507042    -0.80690
O306        O  0.53430887  0.32584032  0.56651980    -0.80670
O307        O  0.56520117  0.40653682  0.55091795    -0.80730
O308        O  0.50708665  0.31204892  0.69752669    -0.80690
O309        O  0.45371417  0.26745240  0.59252219    -0.80650
O310        O  0.61411217  0.43322682  0.64050104    -0.80720
Co311      Co  0.45371180  0.31152293  0.65918739     1.51530
Co312      Co  0.53349072  0.39833451  0.59297788     1.51690
Co313      Co  0.54310322  0.41798149  0.66449476     1.51570
Co314      Co  0.46638740  0.35095972  0.58977500     1.51470
O315        O  0.49887541  0.36895807  0.63279988    -1.42610
C316        C  0.48005675  0.23785139  0.61120039     1.08940
C317        C  0.63377042  0.39558882  0.62441920     1.09030
C318        C  0.55719147  0.33080989  0.69888871     1.08960
C319        C  0.55916508  0.35538290  0.54559865     1.08940
O320        O  0.42860213  0.89585041  0.67871483    -0.80680
O321        O  0.46346040  0.93904463  0.58390934    -0.80700
O322        O  0.51472452  0.98987343  0.62839438    -0.80710
O323        O  0.38468365  0.83766354  0.60419472    -0.80650
O324        O  0.56507559  0.99040296  0.58552677    -0.80780
O325        O  0.38954379  0.80046209  0.65053201    -0.80700
O326        O  0.45371245  0.86848583  0.55446137    -0.80680
O327        O  0.50725972  0.94413645  0.68639952    -0.80720
C328        C  0.45592789  0.93457162  0.69250782     1.09010
C329        C  0.45255377  0.91926026  0.55734079     1.08890
C330        C  0.53593023  0.01603493  0.60480938     1.09030
C331        C  0.36182008  0.82100956  0.62928042     1.08910
O332        O  0.49805502  0.75955187  0.65791633    -0.80680
O333        O  0.61519215  0.91173085  0.61600974    -0.80760
O334        O  0.58770324  0.86305410  0.66670393    -0.80690
O335        O  0.52928817  0.79350588  0.57594251    -0.80670
O336        O  0.55780192  0.87633469  0.56183794    -0.80730
O337        O  0.52363959  0.84610722  0.69997868    -0.80690
O338        O  0.44998952  0.74700471  0.61461813    -0.80650
O339        O  0.61303513  0.96913219  0.65616703    -0.80720
Co340      Co  0.46291397  0.82810710  0.66828871     1.51530
Co341      Co  0.53615269  0.92085480  0.60131368     1.51690
Co342      Co  0.54790042  0.92189397  0.64635408     1.51570
Co343      Co  0.45746537  0.81570329  0.59045098     1.51470
O344        O  0.49475037  0.86233033  0.62704527    -1.42610
C345        C  0.48189892  0.72971273  0.63484092     1.08940
C346        C  0.64143921  0.94348940  0.63627211     1.09030
C347        C  0.57429217  0.85546521  0.69467826     1.08960
C348        C  0.55505665  0.82448184  0.55684294     1.08940
O349        O  0.01236620  0.18914593  0.31418717    -0.80680
O350        O  0.94934212  0.13542063  0.44551837    -0.80700
O351        O  0.88611014  0.05688325  0.35110659    -0.80710
O352        O  0.06448514  0.25194064  0.41226232    -0.80650
O353        O  0.87879853  0.09490052  0.39820396    -0.80780
O354        O  0.01602413  0.24072601  0.36903693    -0.80700
O355        O  0.96271139  0.20164856  0.41515081    -0.80680
O356        O  0.93012134  0.14844894  0.32206893    -0.80720
C357        C  0.96160020  0.18143815  0.30698322     1.09010
C358        C  0.95444368  0.18627500  0.44241897     1.08890
C359        C  0.85769113  0.07692898  0.37275773     1.09030
C360        C  0.03663292  0.27261764  0.39057713     1.08910
O361        O  0.11514365  0.21444692  0.34647665    -0.80680
O362        O  0.94459100  0.00385171  0.38886184    -0.80760
O363        O  0.02283386  0.09087046  0.30273154    -0.80690
O364        O  0.05174324  0.13835972  0.44184605    -0.80670
O365        O  0.02622527  0.05814442  0.42253998    -0.80730
O366        O  0.08452640  0.10669289  0.33770606    -0.80690
O367        O  0.11300980  0.16131107  0.38720766    -0.80650
O368        O  0.99120870  0.01145042  0.34452694    -0.80720
Co369      Co  0.04788585  0.17063121  0.35540291     1.51530
Co370      Co  0.95236630  0.07625507  0.41108248     1.51690
Co371      Co  0.96002564  0.08010544  0.33358202     1.51570
Co372      Co  0.03479357  0.17818593  0.39999435     1.51470
O373        O  0.99016307  0.11821248  0.37446102    -1.42610
C374        C  0.14107653  0.18769750  0.36598262     1.08940
C375        C  0.97336289  0.98367208  0.36739382     1.09030
C376        C  0.07284658  0.09672562  0.30965585     1.08960
C377        C  0.04536815  0.08622690  0.44517090     1.08940
O378        O  0.98109439  0.55699640  0.29395548    -0.80680
O379        O  0.02753331  0.60815844  0.44670123    -0.80700
O380        O  0.08958566  0.68472095  0.35017184    -0.80710
O381        O  0.92542709  0.50381517  0.37595562    -0.80650
O382        O  0.09872412  0.63656195  0.39273976    -0.80780
O383        O  0.00277878  0.52111341  0.35257718    -0.80700
O384        O  0.98029367  0.54031455  0.42434841    -0.80680
O385        O  0.05074564  0.59766222  0.31935249    -0.80720
C386        C  0.03223075  0.57095571  0.29512281     1.09010
C387        C  0.00135137  0.56176117  0.44829382     1.08890
C388        C  0.12020388  0.66074869  0.36900006     1.09030
C389        C  0.97144635  0.48818284  0.36726902     1.08910
O390        O  0.88927274  0.55876328  0.33494805    -0.80680
O391        O  0.04179621  0.73643374  0.38963066    -0.80760
O392        O  0.01545169  0.69342059  0.29953629    -0.80690
O393        O  0.90883202  0.62699283  0.43638201    -0.80670
O394        O  0.96950706  0.69770929  0.43121931    -0.80730
O395        O  0.93759994  0.65059922  0.31395467    -0.80690
O396        O  0.86410902  0.60154104  0.37783369    -0.80650
O397        O  0.97496710  0.72291674  0.35666661    -0.80720
Co398      Co  0.97077449  0.58659328  0.33567974     1.51530
Co399      Co  0.03190769  0.66464598  0.41202189     1.51690
Co400      Co  0.01010776  0.65886253  0.34000764     1.51570
Co401      Co  0.92284087  0.57246278  0.40197159     1.51470
O402        O  0.98215347  0.62088818  0.37919310    -1.42610
C403        C  0.85227993  0.58105190  0.35116064     1.08940
C404        C  0.00419212  0.75515352  0.37354372     1.09030
C405        C  0.96443828  0.68239472  0.29473053     1.08960
C406        C  0.92768684  0.67475200  0.44401735     1.08940
O407        O  0.44470896  0.08816294  0.32092140    -0.80680
O408        O  0.51310380  0.09439527  0.45147807    -0.80700
O409        O  0.47856341  0.01682633  0.37427906    -0.80710
O410        O  0.38487035  0.12298963  0.38020251    -0.80650
O411        O  0.54964916  0.02514863  0.40625352    -0.80780
O412        O  0.40800579  0.18186397  0.34401687    -0.80700
O413        O  0.42877054  0.08231148  0.43403929    -0.80680
O414        O  0.50750393  0.02877180  0.31214625    -0.80720
C415        C  0.46273358  0.04804778  0.30462839     1.09010
C416        C  0.46578283  0.06972418  0.45288917     1.08890
C417        C  0.50984307  0.99560687  0.39336011     1.09030
C418        C  0.37093076  0.15428478  0.35901449     1.08910
O419        O  0.51460352  0.22933540  0.35944612    -0.80680
O420        O  0.61214962  0.12469820  0.37979975    -0.80760
O421        O  0.55436532  0.13068208  0.31964992    -0.80690
O422        O  0.48598945  0.19041065  0.44508525    -0.80670
O423        O  0.57018150  0.18721805  0.42545192    -0.80730
O424        O  0.49382957  0.18156656  0.29901819    -0.80690
O425        O  0.44400995  0.23012228  0.39282152    -0.80650
O426        O  0.58900312  0.04991463  0.35450214    -0.80720
Co427      Co  0.48518656  0.15798163  0.34201293     1.51530
Co428      Co  0.55922534  0.10923508  0.41363426     1.51690
Co429      Co  0.51252802  0.07468200  0.34862168     1.51570
Co430      Co  0.43784050  0.15371290  0.41136331     1.51470
O431        O  0.49865783  0.12619709  0.38438667    -1.42610
C432        C  0.48328834  0.25536144  0.37749474     1.08940
C433        C  0.62611082  0.08471732  0.36388502     1.09030
C434        C  0.53636439  0.15462092  0.29550572     1.08960
C435        C  0.53623891  0.20881635  0.44363226     1.08940
O436        O  0.42554028  0.60775327  0.32468474    -0.80680
O437        O  0.51322232  0.57259220  0.44241644    -0.80700
O438        O  0.47132479  0.51718865  0.36025390    -0.80710
O439        O  0.37955325  0.62896701  0.38238023    -0.80650
O440        O  0.54613397  0.52018390  0.38963524    -0.80780
O441        O  0.39483504  0.69694922  0.35134100    -0.80700
O442        O  0.42674565  0.57383554  0.42777696    -0.80680
O443        O  0.47730607  0.55690285  0.29711352    -0.80720
C444        C  0.43457683  0.58457177  0.29850135     1.09010
C445        C  0.46284729  0.55597061  0.44521450     1.08890
C446        C  0.50472435  0.49315617  0.37700209     1.09030
C447        C  0.36033107  0.66381676  0.36520451     1.08910
O448        O  0.50926926  0.73741335  0.36299785    -0.80680
O449        O  0.60737409  0.62283884  0.37143049    -0.80760
O450        O  0.54200075  0.64749763  0.31701959    -0.80690
O451        O  0.48934394  0.67323099  0.44745833    -0.80670
O452        O  0.57209235  0.67282272  0.42586023    -0.80730
O453        O  0.48080480  0.70013940  0.30039647    -0.80690
O454        O  0.44599331  0.73070999  0.40084225    -0.80650
O455        O  0.57999237  0.55898222  0.33760154    -0.80720
Co456      Co  0.47275437  0.67136454  0.34362762     1.51530
Co457      Co  0.55704194  0.59957006  0.40541589     1.51690
Co458      Co  0.50131177  0.58398313  0.33970771     1.51570
Co459      Co  0.43763873  0.64967845  0.41241279     1.51470
O460        O  0.49400603  0.62678742  0.38088368    -1.42610
C461        C  0.48268853  0.75907465  0.38511010     1.08940
C462        C  0.61900654  0.58983168  0.34978725     1.09030
C463        C  0.52355960  0.67427470  0.29452936     1.08960
C464        C  0.53990138  0.68995931  0.44684148     1.08940
C465        C  0.50239396  0.93496602  0.39666621    -0.06010
C466        C  0.45158834  0.90816019  0.38782326    -0.33440
C467        C  0.44493878  0.85122498  0.38463926     0.35810
C468        C  0.48935763  0.81921365  0.39017250    -0.06370
C469        C  0.54008361  0.84540868  0.39940811    -0.33340
C470        C  0.54636560  0.90262030  0.40351446     0.35720
H471        H  0.41700666  0.93162862  0.38225311     0.16090
O472        O  0.39533179  0.82736607  0.37465916    -0.60830
H473        H  0.57480188  0.82135108  0.40368855     0.16100
O474        O  0.59646725  0.92641377  0.41254134    -0.60930
H475        H  0.59376595  0.93101782  0.43566094     0.43100
H476        H  0.39856453  0.82471538  0.35146184     0.43050
C477        C  0.48932809  0.31618212  0.37896859    -0.06010
C478        C  0.44217569  0.34610741  0.37916223    -0.33440
C479        C  0.44651872  0.40345956  0.37860970     0.35810
C480        C  0.49867203  0.43241140  0.37933308    -0.06370
C481        C  0.54580001  0.40243213  0.38044502    -0.33340
C482        C  0.54146696  0.34500508  0.37977889     0.35720
H483        H  0.40165494  0.32488326  0.37866369     0.16090
O484        O  0.39938151  0.43082767  0.37776994    -0.60830
H485        H  0.58635957  0.42357066  0.38078222     0.16100
O486        O  0.58852396  0.31745041  0.37992168    -0.60930
H487        H  0.59711444  0.31303294  0.40240601     0.43100
H488        H  0.38845848  0.43009133  0.35537803     0.43050
C489        C  0.79461525  0.58377438  0.34062104    -0.06010
C490        C  0.77081896  0.63329982  0.34587914    -0.33440
C491        C  0.71378699  0.63628568  0.34618934     0.35810
C492        C  0.67839247  0.58884942  0.34077217    -0.06370
C493        C  0.70222298  0.53993314  0.33246466    -0.33340
C494        C  0.76011214  0.53708175  0.33266227     0.35720
H495        H  0.79665192  0.66954062  0.35218521     0.16090
O496        O  0.69285296  0.68499346  0.35473592    -0.60830
H497        H  0.67610692  0.50298356  0.32848433     0.16100
O498        O  0.78205744  0.48776401  0.32767282    -0.60930
H499        H  0.78312043  0.47114302  0.34867847     0.43100
H500        H  0.70791051  0.71220127  0.33945265     0.43050
C501        C  0.18119771  0.66146563  0.36425312    -0.06010
C502        C  0.20855109  0.61867772  0.37662535    -0.33440
C503        C  0.26581010  0.61850690  0.37575061     0.35810
C504        C  0.29867345  0.66234617  0.36232816    -0.06370
C505        C  0.27131823  0.70446601  0.34854805    -0.33340
C506        C  0.21302019  0.70405331  0.34924364     0.35720
H507        H  0.18529670  0.58480662  0.38755593     0.16090
O508        O  0.28900581  0.57449455  0.38827196    -0.60830
H509        H  0.29502686  0.73841141  0.33802870     0.16100
O510        O  0.18795222  0.74691689  0.33679998    -0.60930
H511        H  0.18573105  0.73880403  0.31394131     0.43100
H512        H  0.28922801  0.58128983  0.41130524     0.43050
C513        C  0.79864512  0.07745063  0.36799213    -0.06010
C514        C  0.76510119  0.02886876  0.36973140    -0.33440
C515        C  0.70820710  0.02933117  0.36551674     0.35810
C516        C  0.68499441  0.07882112  0.35938929    -0.06370
C517        C  0.71940155  0.12655256  0.35563009    -0.33340
C518        C  0.77594953  0.12609906  0.36000931     0.35720
H519        H  0.78285832  0.99104101  0.37533788     0.16090
O520        O  0.67543808  0.98253286  0.37022963    -0.60830
H521        H  0.70196997  0.16490017  0.35080291     0.16100
O522        O  0.80875769  0.17330905  0.35649930    -0.60930
H523        H  0.81056960  0.19079967  0.37766198     0.43100
H524        H  0.67082069  0.96515714  0.34914180     0.43050
C525        C  0.19953366  0.17856169  0.36120098    -0.06010
C526        C  0.23594683  0.21905505  0.34827964    -0.33440
C527        C  0.29214447  0.21071620  0.34516290     0.35810
C528        C  0.31193324  0.16113982  0.35481451    -0.06370
C529        C  0.27453752  0.11943843  0.36534996    -0.33340
C530        C  0.21894102  0.12770674  0.36857355     0.35720
H531        H  0.22122392  0.25785328  0.34177615     0.16090
O532        O  0.32762159  0.25258732  0.33500342    -0.60830
H533        H  0.28874679  0.08062821  0.37228722     0.16100
O534        O  0.18405110  0.08587214  0.37946068    -0.60930
H535        H  0.17601736  0.06159720  0.36096263     0.43100
H536        H  0.32925205  0.24773847  0.31186669     0.43050
C537        C  0.99610668  0.81383882  0.37280654    -0.06010
C538        C  0.04090671  0.85210180  0.37776026    -0.33440
C539        C  0.03426430  0.90791909  0.37523389     0.35810
C540        C  0.98225083  0.92572306  0.36825481    -0.06370
C541        C  0.93736605  0.88786080  0.36379448    -0.33340
C542        C  0.94403416  0.83214693  0.36564690     0.35720
H543        H  0.08126132  0.83869352  0.38293671     0.16090
O544        O  0.07862193  0.94475029  0.37966734    -0.60830
H545        H  0.89710764  0.90158683  0.35863336     0.16100
O546        O  0.89950401  0.79594489  0.36013888    -0.60930
H547        H  0.87931610  0.79328781  0.38038946     0.43100
H548        H  0.07806112  0.95444838  0.40236144     0.43050
C549        C  0.02043117  0.32930394  0.39044993    -0.06010
C550        C  0.05994290  0.37345018  0.39001697    -0.33440
C551        C  0.04468040  0.42564625  0.38226864     0.35810
C552        C  0.98903152  0.43413221  0.37573445    -0.06370
C553        C  0.94941964  0.39049299  0.37787559    -0.33340
C554        C  0.96470517  0.33839875  0.38461178     0.35720
H555        H  0.10289304  0.36695559  0.39390821     0.16090
O556        O  0.08427612  0.46813516  0.38147552    -0.60830
H557        H  0.90657913  0.39629427  0.37310284     0.16100
O558        O  0.92507097  0.29581747  0.38400887    -0.60930
H559        H  0.90290513  0.30017716  0.40339736     0.43100
H560        H  0.10088648  0.46627285  0.36019189     0.43050
C561        C  0.45287827  0.95514246  0.52931655    -0.06010
C562        C  0.40402764  0.97015131  0.51516185    -0.33440
C563        C  0.40598615  0.00671746  0.48966049     0.35810
C564        C  0.45732328  0.02751702  0.47761430    -0.06370
C565        C  0.50513752  0.00952012  0.49077625    -0.33340
C566        C  0.50363460  0.97573040  0.51660242     0.35720
H567        H  0.36450904  0.95479735  0.52440119     0.16090
O568        O  0.35788900  0.02210775  0.47715137    -0.60830
H569        H  0.54526344  0.02242326  0.48127092     0.16100
O570        O  0.55259659  0.95980335  0.52772432    -0.60930
H571        H  0.57902500  0.99245751  0.52820502     0.43100
H572        H  0.34866212  0.05469703  0.48964561     0.43050
C573        C  0.56971459  0.79917273  0.52594941    -0.06010
C574        C  0.59231527  0.74781010  0.52523363    -0.33440
C575        C  0.58812613  0.71351807  0.49825785     0.35810
C576        C  0.55966858  0.72961881  0.47167738    -0.06370
C577        C  0.53938391  0.78135359  0.47196516    -0.33340
C578        C  0.54545537  0.81647660  0.49818048     0.35720
H579        H  0.60959420  0.73251539  0.54643110     0.16090
O580        O  0.60636802  0.66209710  0.49945930    -0.60830
H581        H  0.51469466  0.79317730  0.45262727     0.16100
O582        O  0.52001391  0.86422055  0.49777142    -0.60930
H583        H  0.53884426  0.88593723  0.48094367     0.43100
H584        H  0.64411645  0.66545525  0.49050099     0.43050
C585        C  0.43821946  0.45197042  0.52458108    -0.06010
C586        C  0.40847806  0.43834983  0.49693874    -0.33440
C587        C  0.41229733  0.47346598  0.47094109     0.35810
C588        C  0.44744967  0.52157604  0.47230746    -0.06370
C589        C  0.47397928  0.53626796  0.50026949    -0.33340
C590        C  0.46966265  0.50286524  0.52611598     0.35720
H591        H  0.38424377  0.39979340  0.49504487     0.16090
O592        O  0.38483050  0.45854718  0.44385307    -0.60830
H593        H  0.50060751  0.57350659  0.50184763     0.16100
O594        O  0.50176504  0.51809314  0.55155850    -0.60930
H595        H  0.49128584  0.55490979  0.55806112     0.43100
H596        H  0.34962567  0.47643848  0.44534636     0.43050
C597        C  0.55591264  0.25261438  0.46571572    -0.06010
C598        C  0.53560924  0.30440496  0.46392505    -0.33440
C599        C  0.54554123  0.34317621  0.48812145     0.35810
C600        C  0.57289796  0.32895169  0.51549227    -0.06370
C601        C  0.59669134  0.27855351  0.51615496    -0.33340
C602        C  0.58939240  0.24094351  0.49115422     0.35720
H603        H  0.50964839  0.31387335  0.44454665     0.16090
O604        O  0.52202454  0.39203979  0.48657118    -0.60830
H605        H  0.61704709  0.26652772  0.53721673     0.16100
O606        O  0.60969435  0.19054321  0.49351902    -0.60930
H607        H  0.64619835  0.19394716  0.48300071     0.43100
H608        H  0.54950117  0.41667433  0.47558586     0.43050
C609        C  0.51928659  0.56306282  0.62291531    -0.06010
C610        C  0.56176079  0.60278907  0.63002395    -0.33440
C611        C  0.55011081  0.65743151  0.63491308     0.35810
C612        C  0.49568628  0.67256970  0.63204587    -0.06370
C613        C  0.45369550  0.63284588  0.62414266    -0.33340
C614        C  0.46499793  0.57830709  0.62017211     0.35720
H615        H  0.60339274  0.59102473  0.63320299     0.16090
O616        O  0.59213873  0.69578863  0.64176165    -0.60830
H617        H  0.41162011  0.64395083  0.62187357     0.16100
O618        O  0.42240802  0.53952582  0.61520244    -0.60930
H619        H  0.41117791  0.54366299  0.59309861     0.43100
H620        H  0.59542313  0.69584168  0.66495046     0.43050
C621        C  0.52423179  0.07314780  0.59997612    -0.06010
C622        C  0.56233777  0.11350784  0.61115932    -0.33440
C623        C  0.54890190  0.16763985  0.61313671     0.35810
C624        C  0.49762667  0.18315905  0.60234293    -0.06370
C625        C  0.46059924  0.14313121  0.58915085    -0.33340
C626        C  0.47324828  0.08801802  0.58841104     0.35720
H627        H  0.60124715  0.10254243  0.62056541     0.16090
O628        O  0.58520638  0.20489597  0.62743540    -0.60830
H629        H  0.42034597  0.15379087  0.58169721     0.16100
O630        O  0.43421585  0.04876463  0.57846111    -0.60930
H631        H  0.42584401  0.05809415  0.55654846     0.43100
H632        H  0.58114629  0.19813788  0.65026077     0.43050
C633        C  0.02761829  0.98316502  0.52673030    -0.06010
C634        C  0.98296731  0.99420647  0.50799347    -0.33440
C635        C  0.98887262  0.02934113  0.48281245     0.35810
C636        C  0.03999937  0.05809311  0.47607877    -0.06370
C637        C  0.08473969  0.04999393  0.49582261    -0.33340
C638        C  0.07892555  0.01252078  0.52091041     0.35720
H639        H  0.94282614  0.97335448  0.51171357     0.16090
O640        O  0.94380930  0.03391969  0.46415926    -0.60830
H641        H  0.12465615  0.07036223  0.49089339     0.16100
O642        O  0.12371135  0.00444165  0.53911372    -0.60930
H643        H  0.14338038  0.97591812  0.52782963     0.43100
H644        H  0.93903152  0.99896229  0.45215001     0.43050
C645        C  0.92403336  0.76612287  0.52648337    -0.06010
C646        C  0.91415420  0.79146562  0.49815300    -0.33440
C647        C  0.90483521  0.76034160  0.47078939     0.35810
C648        C  0.90660501  0.70326276  0.47158885    -0.06370
C649        C  0.90927582  0.67767416  0.50069398    -0.33340
C650        C  0.91814822  0.70900925  0.52821269     0.35720
H651        H  0.91792411  0.83557495  0.49678709     0.16090
O652        O  0.90157211  0.78629915  0.44273050    -0.60830
H653        H  0.91160591  0.63384978  0.50164468     0.16100
O654        O  0.92734009  0.68355381  0.55582061    -0.60930
H655        H  0.89084203  0.67952342  0.56629286     0.43100
H656        H  0.86171277  0.78998187  0.43957754     0.43050
C657        C  0.81510962  0.92191285  0.64228649    -0.06010
C658        C  0.79017222  0.95253785  0.66593619    -0.33440
C659        C  0.73410256  0.96340038  0.66383114     0.35810
C660        C  0.70243736  0.94318672  0.63786376    -0.06370
C661        C  0.72898391  0.91660610  0.61335461    -0.33340
C662        C  0.78410867  0.90582642  0.61532777     0.35720
H663        H  0.81352452  0.96644580  0.68645147     0.16090
O664        O  0.71021028  0.99091669  0.68801913    -0.60830
H665        H  0.70649843  0.90234611  0.59258026     0.16100
O666        O  0.80754811  0.88020210  0.59019517    -0.60930
H667        H  0.79536824  0.84102234  0.59206444     0.43100
H668        H  0.71499335  0.02992586  0.68239849     0.43050
C669        C  0.18650992  0.83245205  0.63547632    -0.06010
C670        C  0.20987644  0.78630649  0.64723633    -0.33440
C671        C  0.26727988  0.78233903  0.64635458     0.35810
C672        C  0.30189366  0.82465205  0.63330849    -0.06370
C673        C  0.27885246  0.87171984  0.62327153    -0.33340
C674        C  0.22214441  0.87624829  0.62454079     0.35720
H675        H  0.18362947  0.75242347  0.65593964     0.16090
O676        O  0.28881444  0.73612827  0.65709017    -0.60830
H677        H  0.30506388  0.90533521  0.61414874     0.16100
O678        O  0.20210087  0.92405113  0.61499334    -0.60930
H679        H  0.20327689  0.92240865  0.59171174     0.43100
H680        H  0.29024675  0.71139460  0.63849030     0.43050
C681        C  0.98868178  0.53275535  0.47791299    -0.06010
C682        C  0.94329486  0.49343234  0.47803907    -0.33440
C683        C  0.92957669  0.46269125  0.50451153     0.35810
C684        C  0.96106370  0.47081150  0.53168471    -0.06370
C685        C  0.00399622  0.51254688  0.53233351    -0.33340
C686        C  0.01761024  0.54377149  0.50585452     0.35720
H687        H  0.91829899  0.48567634  0.45728342     0.16090
O688        O  0.88555058  0.42466136  0.50353841    -0.60830
H689        H  0.02945935  0.51892808  0.55278031     0.16100
O690        O  0.06103320  0.58238184  0.50709673    -0.60930
H691        H  0.04565860  0.61539394  0.51638817     0.43100
H692        H  0.89886871  0.39259121  0.49211381     0.43050
C693        C  0.02408298  0.29194514  0.51746943    -0.06010
C694        C  0.00919774  0.23605429  0.52222999    -0.33440
C695        C  0.98227642  0.20257574  0.49925727     0.35810
C696        C  0.97063556  0.22374700  0.46974126    -0.06370
C697        C  0.98446051  0.27987232  0.46511102    -0.33340
C698        C  0.01138940  0.31378217  0.48836640     0.35720
H699        H  0.01656751  0.21799286  0.54470168     0.16090
O700        O  0.96549741  0.14966770  0.50638623    -0.60830
H701        H  0.97441586  0.29772187  0.44328488     0.16100
O702        O  0.02559114  0.36769831  0.48241289    -0.60930
H703        H  0.99206857  0.38312350  0.47431672     0.43100
H704        H  0.99759624  0.13365740  0.51589823     0.43050
C705        C  0.03766644  0.56194031  0.61310612    -0.06010
C706        C  0.99061438  0.58441326  0.62579754    -0.33440
C707        C  0.98159962  0.63941438  0.62267823     0.35810
C708        C  0.02011273  0.67428422  0.60654001    -0.06370
C709        C  0.06622311  0.65147132  0.59249486    -0.33340
C710        C  0.07522989  0.59581003  0.59578052     0.35720
H711        H  0.96031602  0.55917474  0.63871237     0.16090
O712        O  0.93589081  0.65887433  0.63677809    -0.60830
H713        H  0.09656220  0.67718901  0.57994297     0.16100
O714        O  0.12135146  0.57550686  0.58270978    -0.60930
H715        H  0.14953787  0.57913775  0.59944484     0.43100
H716        H  0.90539844  0.65015827  0.62182285     0.43050
C717        C  0.98473379  0.05579660  0.61487967    -0.06010
C718        C  0.02310955  0.08830980  0.63279338    -0.33440
C719        C  0.02004726  0.14489152  0.63505693     0.35810
C720        C  0.97810113  0.16990348  0.61926607    -0.06370
C721        C  0.94234325  0.13801927  0.59961278    -0.33340
C722        C  0.94495844  0.08157541  0.59751373     0.35720
H723        H  0.05439321  0.06974813  0.64608447     0.16090
O724        O  0.05747796  0.17505443  0.65334479    -0.60830
H725        H  0.91039435  0.15650034  0.58679872     0.16100
O726        O  0.90737324  0.05209929  0.57896507    -0.60930
H727        H  0.87337163  0.04759565  0.59191043     0.43100
H728        H  0.08684030  0.18865409  0.63863042     0.43050
C729        C  0.79899070  0.34858561  0.62805114    -0.06010
C730        C  0.75520713  0.30936442  0.63060854    -0.33440
C731        C  0.70131098  0.32508760  0.63036552     0.35810
C732        C  0.69063337  0.38049203  0.62807227    -0.06370
C733        C  0.73454194  0.42017420  0.62793897    -0.33340
C734        C  0.78867464  0.40447000  0.62741988     0.35720
H735        H  0.76263502  0.26644104  0.63125906     0.16090
O736        O  0.65897312  0.28587769  0.63229101    -0.60830
H737        H  0.72693352  0.46298574  0.62671369     0.16100
O738        O  0.83137857  0.44390020  0.62615037    -0.60930
H739        H  0.83442055  0.45419437  0.60377026     0.43100
H740        H  0.65442254  0.27888966  0.65504360     0.43050
C741        C  0.19110113  0.36758427  0.62243037    -0.06010
C742        C  0.20755481  0.31581585  0.63017768    -0.33440
C743        C  0.26366310  0.30525273  0.63031768     0.35810
C744        C  0.30396965  0.34623964  0.62145238    -0.06370
C745        C  0.28679166  0.39788410  0.61365621    -0.33340
C746        C  0.23125056  0.40880799  0.61450640     0.35720
H747        H  0.17687340  0.28378847  0.63655046     0.16090
O748        O  0.27833874  0.25458539  0.63845159    -0.60830
H749        H  0.31662156  0.43044426  0.60694567     0.16100
O750        O  0.21635658  0.45931607  0.60609820    -0.60930
H751        H  0.21876080  0.48179205  0.62567306     0.43100
H752        H  0.28234793  0.25638641  0.66160760     0.43050
C753        C  0.69138791  0.90058947  0.76994231    -0.06010
C754        C  0.63428768  0.89355826  0.77562361    -0.33440
C755        C  0.59674463  0.87637909  0.75201621     0.35810
C756        C  0.61497721  0.86721237  0.72094891    -0.06370
C757        C  0.67223899  0.87436701  0.71499999    -0.33340
C758        C  0.71021772  0.89027126  0.73916761     0.35720
H759        H  0.61852095  0.89930813  0.79914802     0.16090
O760        O  0.54202340  0.86898270  0.75981007    -0.60830
H761        H  0.68779012  0.86665365  0.69159812     0.16100
O762        O  0.76556634  0.89328638  0.73271690    -0.60930
H763        H  0.77646308  0.85524287  0.73377615     0.43100
H764        H  0.53751832  0.83226278  0.76914761     0.43050
C765        C  0.85302844  0.80393200  0.78046034    -0.06010
C766        C  0.85697192  0.75484869  0.76292008    -0.33440
C767        C  0.89468882  0.75180848  0.73719347     0.35810
C768        C  0.92866773  0.79829422  0.72858942    -0.06370
C769        C  0.92459818  0.84619311  0.74638529    -0.33340
C770        C  0.88804430  0.84961494  0.77156524     0.35720
H771        H  0.83058344  0.71920352  0.76887336     0.16090
O772        O  0.89541849  0.70458393  0.71966103    -0.60830
H773        H  0.94830828  0.88303855  0.73963166     0.16100
O774        O  0.88333266  0.89993910  0.78547984    -0.60930
H775        H  0.92023210  0.91158996  0.79390673     0.43100
H776        H  0.92527848  0.68452275  0.72875209     0.43050
C777        C  0.64024060  0.39435991  0.78262942    -0.06010
C778        C  0.66627177  0.39740125  0.75339365    -0.33440
C779        C  0.64189264  0.37195753  0.72683265     0.35810
C780        C  0.58866344  0.34400869  0.72844663    -0.06370
C781        C  0.56293317  0.34010334  0.75781121    -0.33340
C782        C  0.58742047  0.36590998  0.78447857     0.35720
H783        H  0.70695000  0.41787720  0.75119781     0.16090
O784        O  0.67075712  0.37561571  0.69914540    -0.60830
H785        H  0.52285104  0.31850715  0.75996781     0.16100
O786        O  0.55922300  0.36249412  0.81235887    -0.60930
H787        H  0.53908972  0.39616545  0.81378313     0.43100
H788        H  0.69133156  0.34224704  0.69794336     0.43050
C789        C  0.89445287  0.40048062  0.72552905    -0.06010
C790        C  0.84060154  0.37482769  0.72265406    -0.33440
C791        C  0.81111519  0.35360724  0.74857730     0.35810
C792        C  0.83299894  0.36059283  0.77882616    -0.06370
C793        C  0.88610240  0.38760237  0.78198721    -0.33340
C794        C  0.91665221  0.40708349  0.75584199     0.35720
H795        H  0.82195783  0.36816737  0.69976199     0.16090
O796        O  0.76106001  0.32572819  0.74391209    -0.60830
H797        H  0.90425939  0.39407957  0.80500110     0.16100
O798        O  0.96879994  0.43050177  0.76026147    -0.60930
H799        H  0.96430552  0.47013482  0.76271831     0.43100
H800        H  0.76948259  0.28742424  0.73954800     0.43050
C801        C  0.76096078  0.57752583  0.88995996    -0.06010
C802        C  0.80842302  0.61220351  0.89449504    -0.33440
C803        C  0.80478906  0.66842405  0.89778548     0.35810
C804        C  0.75282389  0.69023964  0.89752586    -0.06370
C805        C  0.70507505  0.65512301  0.89470188    -0.33340
C806        C  0.70897816  0.59902606  0.89027233     0.35720
H807        H  0.84864632  0.59587758  0.89421684     0.16090
O808        O  0.85218975  0.70210521  0.89940130    -0.60830
H809        H  0.66493120  0.67149707  0.89397181     0.16100
O810        O  0.66190700  0.56547252  0.88677880    -0.60930
H811        H  0.65318304  0.56608795  0.86409072     0.43100
H812        H  0.87098494  0.69228819  0.91886157     0.43050
C813        C  0.75992062  0.06622648  0.88016922    -0.06010
C814        C  0.70412151  0.07772015  0.87954441    -0.33440
C815        C  0.68875118  0.13173082  0.88008716     0.35810
C816        C  0.72940024  0.17524939  0.87997653    -0.06370
C817        C  0.78514506  0.16385771  0.88038326    -0.33340
C818        C  0.80052047  0.10991351  0.88100958     0.35720
H819        H  0.67230432  0.04462130  0.87875566     0.16090
O820        O  0.63405348  0.14151220  0.87898260    -0.60830
H821        H  0.81690158  0.19703227  0.88031263     0.16100
O822        O  0.85532790  0.10036642  0.88141880    -0.60930
H823        H  0.86617135  0.09660250  0.85904317     0.43100
H824        H  0.62175322  0.14253240  0.90121065     0.43050
C825        C  0.16619034  0.88215036  0.76731093    -0.06010
C826        C  0.11692542  0.90613331  0.77594563    -0.33440
C827        C  0.08107760  0.92419515  0.75341648     0.35810
C828        C  0.09413922  0.91892925  0.72149032    -0.06370
C829        C  0.14636893  0.90118961  0.71308674    -0.33340
C830        C  0.18177472  0.88203728  0.73554681     0.35720
H831        H  0.10497004  0.90953352  0.80037578     0.16090
O832        O  0.03137073  0.94200160  0.76282818    -0.60830
H833        H  0.15790251  0.89795799  0.68858003     0.16100
O834        O  0.23068929  0.86242017  0.72605305    -0.60930
H835        H  0.22140009  0.82391955  0.71960749     0.43100
H836        H  0.03806229  0.98198805  0.76588883     0.43050
C837        C  0.36445995  0.95730473  0.77498744    -0.06010
C838        C  0.33935528  0.96463327  0.74598204    -0.33440
C839        C  0.37060177  0.96569713  0.71820304     0.35810
C840        C  0.42804315  0.96077605  0.71927398    -0.06370
C841        C  0.45397475  0.96359608  0.74857134    -0.33340
C842        C  0.42245390  0.96023346  0.77634454     0.35720
H843        H  0.29485856  0.96264452  0.74436472     0.16090
O844        O  0.34376944  0.96441161  0.68996848    -0.60830
H845        H  0.49809656  0.96106851  0.74993590     0.16100
O846        O  0.44837202  0.95514831  0.80446508    -0.60930
H847        H  0.46351864  0.91877410  0.80329460     0.43100
H848        H  0.34715694  0.00257273  0.68267699     0.43050
C849        C  0.46023894  0.82450826  0.85318077    -0.06010
C850        C  0.49207273  0.87347095  0.85737986    -0.33440
C851        C  0.54919375  0.87522060  0.85611146     0.35810
C852        C  0.57666088  0.82641330  0.85308552    -0.06370
C853        C  0.54509371  0.77730245  0.84693859    -0.33340
C854        C  0.48694185  0.77635553  0.84638757     0.35720
H855        H  0.47246886  0.91105563  0.86210893     0.16090
O856        O  0.57803404  0.92485182  0.86043009    -0.60830
H857        H  0.56507630  0.73942390  0.84458994     0.16100
O858        O  0.45683349  0.72760416  0.84209170    -0.60930
H859        H  0.45139187  0.72391259  0.81908777     0.43100
H860        H  0.57259305  0.94533020  0.84098748     0.43050
C861        C  0.95650241  0.91820017  0.86309841    -0.06010
C862        C  0.97938745  0.87384034  0.84755382    -0.33440
C863        C  0.03391555  0.86037487  0.85348842     0.35810
C864        C  0.06576834  0.88949082  0.87655816    -0.06370
C865        C  0.04220373  0.93249595  0.89271606    -0.33340
C866        C  0.98857555  0.94675044  0.88628940     0.35720
H867        H  0.95419317  0.84803736  0.83166251     0.16090
O868        O  0.05537568  0.81779217  0.83735005    -0.60830
H869        H  0.06616344  0.95594085  0.91019283     0.16100
O870        O  0.96689383  0.98765720  0.90373486    -0.60930
H871        H  0.95241229  0.97002427  0.92314933     0.43100
H872        H  0.05274860  0.82625614  0.81476857     0.43050
C873        C  0.08105029  0.34880960  0.72810191    -0.06010
C874        C  0.08820074  0.40434837  0.73697578    -0.33440
C875        C  0.12868827  0.42305174  0.75847629     0.35810
C876        C  0.16471552  0.38669080  0.77039178    -0.06370
C877        C  0.15794972  0.33120665  0.76127101    -0.33340
C878        C  0.11723530  0.31245756  0.73986655     0.35720
H879        H  0.06340181  0.43395956  0.72667152     0.16090
O880        O  0.13253569  0.47686190  0.76785583    -0.60830
H881        H  0.18297132  0.30163039  0.77141986     0.16100
O882        O  0.11324483  0.25864290  0.73051567    -0.60930
H883        H  0.13832150  0.25653007  0.71214915     0.43100
H884        H  0.10659146  0.47909700  0.78581591     0.43050
C885        C  0.34462238  0.33394745  0.77930929    -0.06010
C886        C  0.31713446  0.34227922  0.75121755    -0.33440
C887        C  0.34428206  0.36899988  0.72631068     0.35810
C888        C  0.40082946  0.38660840  0.72862277    -0.06370
C889        C  0.42782654  0.37979820  0.75687945    -0.33340
C890        C  0.40106996  0.35197345  0.78154195     0.35720
H891        H  0.27363210  0.33082066  0.74901767     0.16090
O892        O  0.31533038  0.37653816  0.69939376    -0.60830
H893        H  0.47060049  0.39393697  0.75935549     0.16100
O894        O  0.43015219  0.34432966  0.80830788    -0.60930
H895        H  0.44365698  0.30734918  0.80585505     0.43100
H896        H  0.30240670  0.41380270  0.70153406     0.43050
C897        C  0.43621658  0.39065153  0.88133292    -0.06010
C898        C  0.44580220  0.33508214  0.87748373    -0.33440
C899        C  0.49942862  0.31769665  0.87718133     0.35810
C900        C  0.54421332  0.35569104  0.88262295    -0.06370
C901        C  0.53467639  0.41136979  0.88621392    -0.33340
C902        C  0.48118046  0.42902267  0.88515674     0.35720
H903        H  0.41137696  0.30498850  0.87474950     0.16090
O904        O  0.50732023  0.26327800  0.87343711    -0.60830
H905        H  0.56892146  0.44124812  0.89016717     0.16100
O906        O  0.47313199  0.48335224  0.88931265    -0.60930
H907        H  0.46912025  0.48882752  0.91231602     0.43100
H908        H  0.51077534  0.25727441  0.85044399     0.43050
C909        C  0.04712641  0.37717168  0.87230274    -0.06010
C910        C  0.00447657  0.33638357  0.86847978    -0.33440
C911        C  0.94956937  0.34922613  0.87015734     0.35810
C912        C  0.93655923  0.40380656  0.87457202    -0.06370
C913        C  0.97904128  0.44519272  0.87641327    -0.33340
C914        C  0.03422033  0.43211869  0.87559854     0.35720
H915        H  0.01365161  0.29406692  0.86558104     0.16090
O916        O  0.90866680  0.30808474  0.86748198    -0.60830
H917        H  0.96945058  0.48726689  0.87989767     0.16100
O918        O  0.07510906  0.47316055  0.87855090    -0.60930
H919        H  0.08684679  0.48176739  0.85675351     0.43100
H920        H  0.90455402  0.29248014  0.88874441     0.43050
C921        C  0.25641613  0.67882816  0.86863245    -0.06010
C922        C  0.28260783  0.65559495  0.89414577    -0.33440
C923        C  0.28249394  0.59931483  0.89753979     0.35810
C924        C  0.25519184  0.56417439  0.87545439    -0.06370
C925        C  0.22535251  0.58711116  0.85124351    -0.33340
C926        C  0.22569000  0.64390516  0.84779781     0.35720
H927        H  0.30583809  0.68104043  0.91111798     0.16090
O928        O  0.31285820  0.57944384  0.92121790    -0.60830
H929        H  0.20314398  0.56090915  0.83420372     0.16100
O930        O  0.19810342  0.66438735  0.82321316    -0.60930
H931        H  0.16113827  0.67119484  0.83171621     0.43100
H932        H  0.28782854  0.57745489  0.93968569     0.43050
C933        C  0.21647752  0.06715085  0.89332057    -0.06010
C934        C  0.25865855  0.10420539  0.88325620    -0.33440
C935        C  0.24953812  0.15874553  0.88006369     0.35810
C936        C  0.19750823  0.17755508  0.88752822    -0.06370
C937        C  0.15679642  0.14188465  0.90080162    -0.33340
C938        C  0.16588206  0.08632634  0.90344814     0.35720
H939        H  0.29834264  0.09038074  0.87627016     0.16090
O940        O  0.29212698  0.19368030  0.86975000    -0.60830
H941        H  0.11696486  0.15613813  0.90699112     0.16100
O942        O  0.12391731  0.05079022  0.91357216    -0.60930
H943        H  0.09817910  0.04631737  0.89562212     0.43100
H944        H  0.29526403  0.18622117  0.84686356     0.43050
C945        C  0.65987510  0.52396624  0.04126160    -0.06010
C946        C  0.69067400  0.54641602  0.01597824    -0.33440
C947        C  0.70210039  0.51572666  0.98919759     0.35810
C948        C  0.68176091  0.46066224  0.98624332    -0.06370
C949        C  0.64974709  0.43790449  0.01114778    -0.33340
C950        C  0.63883134  0.46910352  0.03850028     0.35720
H951        H  0.70888061  0.58789110  0.01735711     0.16090
O952        O  0.73682398  0.53935568  0.96703916    -0.60830
H953        H  0.63390865  0.39566219  0.00965129     0.16100
O954        O  0.60865356  0.44524324  0.06246555    -0.60930
H955        H  0.57018694  0.45407552  0.05860306     0.43100
H956        H  0.71396314  0.56355125  0.95513481     0.43050
C957        C  0.82278436  0.75045779  0.04133737    -0.06010
C958        C  0.81647736  0.80655896  0.04309263    -0.33440
C959        C  0.81122860  0.83568525  0.01555083     0.35810
C960        C  0.81266976  0.80831735  0.98629008    -0.06370
C961        C  0.82455811  0.75365808  0.98454600    -0.33340
C962        C  0.82972618  0.72453879  0.01196575     0.35720
H963        H  0.80992803  0.82643227  0.06560310     0.16090
O964        O  0.79973038  0.88948016  0.01747488    -0.60830
H965        H  0.82518642  0.73250381  0.96207229     0.16100
O966        O  0.83469870  0.66932206  0.00990226    -0.60930
H967        H  0.87475744  0.66519564  0.00770893     0.43100
H968        H  0.83581954  0.91034487  0.01509551     0.43050
C969        C  0.61052951  0.61474402  0.21424744    -0.06010
C970        C  0.63810128  0.64688170  0.23775001    -0.33440
C971        C  0.60939732  0.67240693  0.26202524     0.35810
C972        C  0.55146688  0.66816929  0.26320632    -0.06370
C973        C  0.52369637  0.64008133  0.23816119    -0.33340
C974        C  0.55241959  0.61222260  0.21446144     0.35720
H975        H  0.68268484  0.65125778  0.23794455     0.16090
O976        O  0.63854387  0.70061619  0.28521682    -0.60830
H977        H  0.47951410  0.63747822  0.23761609     0.16100
O978        O  0.52311409  0.58363443  0.19144010    -0.60930
H979        H  0.52299846  0.54485345  0.19743661     0.43100
H980        H  0.65885585  0.67284275  0.29585399     0.43050
C981        C  0.87021178  0.71353184  0.21392560    -0.06010
C982        C  0.92783802  0.71336438  0.21128040    -0.33440
C983        C  0.96038320  0.70826118  0.23798171     0.35810
C984        C  0.93518561  0.70299997  0.26773766    -0.06370
C985        C  0.87830802  0.70765788  0.27056633    -0.33340
C986        C  0.84594870  0.71322336  0.24412621     0.35720
H987        H  0.94744163  0.71393883  0.18836984     0.16090
O988        O  0.01574725  0.70288894  0.23431384    -0.60830
H989        H  0.85829769  0.70426774  0.29333376     0.16100
O990        O  0.79020943  0.71567464  0.24810977    -0.60930
H991        H  0.78410006  0.75513383  0.24907329     0.43100
H992        H  0.03306669  0.74053710  0.23605711     0.43050
C993        C  0.68011539  0.03643705  0.03680160    -0.06010
C994        C  0.70213938  0.06564165  0.01102812    -0.33440
C995        C  0.71151364  0.03964933  0.98207066     0.35810
C996        C  0.69774842  0.98352273  0.97814670    -0.06370
C997        C  0.67137893  0.95498345  0.00310030    -0.33340
C998        C  0.66279114  0.98101416  0.03236289     0.35720
H999        H  0.71522992  0.10835321  0.01403884     0.16090
O1000       O  0.73741332  0.06868625  0.95839526    -0.60830
H1001       H  0.66126167  0.91148605  0.00066075     0.16100
O1002       O  0.64270905  0.95075105  0.05715828    -0.60930
H1003       H  0.60252012  0.95503138  0.05738289     0.43100
H1004       H  0.70809655  0.08838645  0.94847698     0.43050
C1005       C  0.81267838  0.28702366  0.97716265    -0.06010
C1006       C  0.83455297  0.31484735  0.00379652    -0.33440
C1007       C  0.83933626  0.28768674  0.03189166     0.35810
C1008       C  0.82130693  0.23217452  0.03364954    -0.06370
C1009       C  0.80645174  0.20292427  0.00615237    -0.33340
C1010       C  0.80147623  0.22994153  0.97800319     0.35720
H1011       H  0.84511336  0.35839058  0.00342233     0.16090
O1012       O  0.86023885  0.31616851  0.05763553    -0.60830
H1013       H  0.79628736  0.15942669  0.00668400     0.16100
O1014       O  0.78342031  0.20049398  0.95194758    -0.60930
H1015       H  0.74297059  0.19444470  0.95469152     0.43100
H1016       H  0.89961777  0.30837160  0.05831676     0.43050
C1017       C  0.74546061  0.84985283  0.14373809    -0.06010
C1018       C  0.79668793  0.87781500  0.13840163    -0.33440
C1019       C  0.80260233  0.93460812  0.13981087     0.35810
C1020       C  0.75640915  0.96478371  0.14625679    -0.06370
C1021       C  0.70550288  0.93653681  0.15289412    -0.33340
C1022       C  0.69993675  0.87950322  0.15195047     0.35720
H1023       H  0.83261666  0.85552051  0.13317061     0.16090
O1024       O  0.85341794  0.96002557  0.13366121    -0.60830
H1025       H  0.66927179  0.95867555  0.15753192     0.16100
O1026       O  0.64924672  0.85331073  0.15739701    -0.60930
H1027       H  0.64571892  0.85162356  0.18056980     0.43100
H1028       H  0.85679127  0.96007976  0.11044002     0.43050
C1029       C  0.79965408  0.35657863  0.13655994    -0.06010
C1030       C  0.81892531  0.39668556  0.15837005    -0.33440
C1031       C  0.80729742  0.45119304  0.15433853     0.35810
C1032       C  0.77799920  0.46559821  0.12771398    -0.06370
C1033       C  0.76220837  0.42579922  0.10501960    -0.33340
C1034       C  0.77183635  0.37137123  0.10952837     0.35720
H1035       H  0.83921983  0.38520387  0.17955777     0.16090
O1036       O  0.82367910  0.48971007  0.17666944    -0.60830
H1037       H  0.73860036  0.43621355  0.08476770     0.16100
O1038       O  0.74888053  0.33192587  0.08931199    -0.60930
H1039       H  0.75900493  0.34370490  0.06777234     0.43100
H1040       H  0.79464240  0.48707291  0.19311987     0.43050
C1041       C  0.56446199  0.14616416  0.26468627    -0.06010
C1042       C  0.61111880  0.11541805  0.26443116    -0.33440
C1043       C  0.63692882  0.10110170  0.23648375     0.35810
C1044       C  0.61778613  0.11850184  0.20750857    -0.06370
C1045       C  0.56990549  0.14747334  0.20721480    -0.33340
C1046       C  0.54310022  0.16116603  0.23553396     0.35720
H1047       H  0.62808977  0.10184846  0.28614300     0.16090
O1048       O  0.68314432  0.07234878  0.23788034    -0.60830
H1049       H  0.55508320  0.16217876  0.18524013     0.16100
O1050       O  0.49625736  0.18889799  0.23435027    -0.60930
H1051       H  0.50935008  0.22793438  0.23323448     0.43100
H1052       H  0.66988459  0.03369789  0.23422995     0.43050
C1053       C  0.87797560  0.19356835  0.22167673    -0.06010
C1054       C  0.85757461  0.21776861  0.24921626    -0.33440
C1055       C  0.88824012  0.22085760  0.27678135     0.35810
C1056       C  0.94031152  0.19982508  0.27728907    -0.06370
C1057       C  0.96280054  0.17959969  0.24939728    -0.33340
C1058       C  0.93207296  0.17626741  0.22168436     0.35720
H1059       H  0.81678276  0.23274897  0.24985175     0.16090
O1060       O  0.86516908  0.24051305  0.30379358    -0.60830
H1061       H  0.00229293  0.16183313  0.24969122     0.16100
O1062       O  0.95422520  0.15315283  0.19540204    -0.60930
H1063       H  0.97729822  0.18308593  0.18555314     0.43100
H1064       H  0.88092591  0.27867192  0.30609135     0.43050
C1065       C  0.18094696  0.49803141  0.03368991    -0.06010
C1066       C  0.13109733  0.48869481  0.01732712    -0.33440
C1067       C  0.12640739  0.45002315  0.99279383     0.35810
C1068       C  0.17162876  0.42019433  0.98487988    -0.06370
C1069       C  0.22065962  0.42866333  0.00195648    -0.33340
C1070       C  0.22555203  0.46705927  0.02622374     0.35720
H1071       H  0.09606607  0.51175983  0.02336326     0.16090
O1072       O  0.07854034  0.44315997  0.97596984    -0.60830
H1073       H  0.25687738  0.40820501  0.99520022     0.16100
O1074       O  0.27495792  0.47583257  0.04145640    -0.60930
H1075       H  0.29531460  0.50570035  0.02994480     0.43100
H1076       H  0.08275339  0.46996742  0.95885645     0.43050
C1077       C  0.24507460  0.74442447  0.03560610    -0.06010
C1078       C  0.24607220  0.80181105  0.03735696    -0.33440
C1079       C  0.23710346  0.83278721  0.01050922     0.35810
C1080       C  0.22707540  0.80653533  0.98118058    -0.06370
C1081       C  0.22640433  0.74934082  0.97952890    -0.33340
C1082       C  0.23489754  0.71850071  0.00612063     0.35720
H1083       H  0.25360308  0.82286347  0.05962133     0.16090
O1084       O  0.23969941  0.88859182  0.01303873    -0.60830
H1085       H  0.22000583  0.72805037  0.95720474     0.16100
O1086       O  0.23465723  0.66286289  0.00267241    -0.60930
H1087       H  0.19523061  0.64961354  0.00254336     0.43100
H1088       H  0.27902738  0.89980469  0.01682093     0.43050
C1089       C  0.54252957  0.67806255  0.12819142    -0.06010
C1090       C  0.51031326  0.68979527  0.15422053    -0.33440
C1091       C  0.45415786  0.67573859  0.15387905     0.35810
C1092       C  0.42923120  0.65190824  0.12670650    -0.06370
C1093       C  0.46009426  0.64745484  0.09916891    -0.33340
C1094       C  0.51697475  0.65969546  0.09984495     0.35720
H1095       H  0.52920964  0.70441575  0.17602944     0.16090
O1096       O  0.42452359  0.68344172  0.18076935    -0.60830
H1097       H  0.44060986  0.63220310  0.07765517     0.16100
O1098       O  0.54769879  0.65141734  0.07324794    -0.60930
H1099       H  0.54717231  0.61126447  0.07022521     0.43100
H1100       H  0.42202658  0.72345099  0.18289460     0.43050
C1101       C  0.90969974  0.58362688  0.11153505    -0.06010
C1102       C  0.93295827  0.56604377  0.13927538    -0.33440
C1103       C  0.98780289  0.55291587  0.13950913     0.35810
C1104       C  0.01926875  0.55788805  0.11191907    -0.06370
C1105       C  0.99522934  0.57130134  0.08383617    -0.33340
C1106       C  0.94074639  0.58397156  0.08331114     0.35720
H1107       H  0.90967985  0.56520289  0.16104058     0.16090
O1108       O  0.01153968  0.53992943  0.16717546    -0.60830
H1109       H  0.02000185  0.57604198  0.06266356     0.16100
O1110       O  0.92039309  0.60202045  0.05571669    -0.60930
H1111       H  0.90588423  0.56862257  0.04428451     0.43100
H1112       H  0.99808496  0.50157277  0.17092115     0.43050
C1113       C  0.13442835  0.55378793  0.21488856    -0.06010
C1114       C  0.14474922  0.59733458  0.23582906    -0.33440
C1115       C  0.11339061  0.60126719  0.26293142     0.35810
C1116       C  0.06977878  0.56175805  0.26890072    -0.06370
C1117       C  0.06041677  0.51705452  0.24821414    -0.33340
C1118       C  0.09358626  0.51233608  0.22146988     0.35720
H1119       H  0.17623064  0.62937634  0.23073083     0.16090
O1120       O  0.12308788  0.64627517  0.28213328    -0.60830
H1121       H  0.02728614  0.48635408  0.25262735     0.16100
O1122       O  0.08460143  0.46843915  0.20138366    -0.60930
H1123       H  0.11168508  0.44231201  0.20750701     0.43100
H1124       H  0.15452738  0.63777785  0.29542220     0.43050
C1125       C  0.33688502  0.63857381  0.22100505    -0.06010
C1126       C  0.35786509  0.58614991  0.21962119    -0.33440
C1127       C  0.38967663  0.56692836  0.24422643     0.35810
C1128       C  0.39890955  0.59904046  0.27156516    -0.06370
C1129       C  0.37490328  0.65000877  0.27327955    -0.33340
C1130       C  0.34580681  0.67022810  0.24826089     0.35720
H1131       H  0.34949576  0.55974779  0.19937830     0.16090
O1132       O  0.40945798  0.51618369  0.24174797    -0.60830
H1133       H  0.37949205  0.67563346  0.29403438     0.16100
O1134       O  0.32415763  0.72007972  0.25132999    -0.60930
H1135       H  0.35327570  0.74666847  0.24341619     0.43100
H1136       H  0.44745058  0.52247455  0.23347908     0.43050
C1137       C  0.33532471  0.01966924  0.02648983    -0.06010
C1138       C  0.29207684  0.02369494  0.00573845    -0.33440
C1139       C  0.29174302  0.00013102  0.97614141     0.35810
C1140       C  0.33411110  0.96730111  0.96661328    -0.06370
C1141       C  0.37830725  0.96194179  0.98746634    -0.33340
C1142       C  0.37983019  0.98943226  0.01706886     0.35720
H1143       H  0.25661739  0.04455874  0.01222382     0.16090
O1144       O  0.24752655  0.00755911  0.95740054    -0.60830
H1145       H  0.41098824  0.93613295  0.98101137     0.16100
O1146       O  0.42327136  0.98456619  0.03683489    -0.60930
H1147       H  0.44904684  0.01666045  0.03258590     0.43100
H1148       H  0.21544651  0.98768382  0.96753158     0.43050
C1149       C  0.23507293  0.18262412  0.01897013    -0.06010
C1150       C  0.26323629  0.16759918  0.99159180    -0.33440
C1151       C  0.27704589  0.20577466  0.96787760     0.35810
C1152       C  0.26312061  0.26013388  0.97171360    -0.06370
C1153       C  0.23450795  0.27486028  0.99892422    -0.33340
C1154       C  0.22085987  0.23704980  0.02237311     0.35720
H1155       H  0.27813422  0.12742899  0.98943531     0.16090
O1156       O  0.30829077  0.19162249  0.94235809    -0.60830
H1157       H  0.22168906  0.31579266  0.00194920     0.16100
O1158       O  0.19422805  0.25389964  0.04897558    -0.60930
H1159       H  0.22275926  0.27500222  0.06158010     0.43100
H1160       H  0.30015149  0.15210809  0.93812282     0.43050
C1161       C  0.17078777  0.80349311  0.13111332    -0.06010
C1162       C  0.15804907  0.82667007  0.10200810    -0.33440
C1163       C  0.16887785  0.88286376  0.09654368     0.35810
C1164       C  0.19259087  0.91683459  0.12032959    -0.06370
C1165       C  0.19867979  0.89464663  0.15039440    -0.33340
C1166       C  0.18816770  0.83896999  0.15584880     0.35720
H1167       H  0.14412024  0.80061747  0.08245544     0.16090
O1168       O  0.16094080  0.90278508  0.06721750    -0.60830
H1169       H  0.21460606  0.92026311  0.16970392     0.16100
O1170       O  0.19924959  0.81928643  0.18487200    -0.60930
H1171       H  0.16345604  0.81727051  0.19618338     0.43100
H1172       H  0.12272612  0.91430622  0.06750280     0.43050
C1173       C  0.27943116  0.30000287  0.13538675    -0.06010
C1174       C  0.31775622  0.33803973  0.12170343    -0.33440
C1175       C  0.30775721  0.39326023  0.12057540     0.35810
C1176       C  0.25800820  0.41130903  0.13252741    -0.06370
C1177       C  0.21904988  0.37305303  0.14563101    -0.33340
C1178       C  0.22959634  0.31784786  0.14728991     0.35720
H1179       H  0.35627163  0.32508109  0.11226163     0.16090
O1180       O  0.34640136  0.42895122  0.10706464    -0.60830
H1181       H  0.18061853  0.38609345  0.15513342     0.16100
O1182       O  0.19079052  0.28175640  0.16031804    -0.60930
H1183       H  0.16806846  0.26706767  0.14245448     0.43100
H1184       H  0.37379555  0.43835187  0.12376753     0.43050
C1185       C  0.58728517  0.21886283  0.11018597    -0.06010
C1186       C  0.55927862  0.18276237  0.08903312    -0.33440
C1187       C  0.50354372  0.16791150  0.09351306     0.35810
C1188       C  0.47499425  0.19000903  0.11929629    -0.06370
C1189       C  0.50095940  0.23279365  0.13705359    -0.33340
C1190       C  0.55662882  0.24799793  0.13225944     0.35720
H1191       H  0.58168739  0.16079362  0.07139529     0.16090
O1192       O  0.47896965  0.12831868  0.07413732    -0.60830
H1193       H  0.47909333  0.25234906  0.15588774     0.16100
O1194       O  0.58215384  0.28647161  0.15196532    -0.60930
H1195       H  0.58652599  0.32015648  0.13947824     0.43100
H1196       H  0.46405172  0.14832180  0.05646099     0.43050
C1197       C  0.09143365  0.11963413  0.12170257    -0.06010
C1198       C  0.08012615  0.17059673  0.10974912    -0.33440
C1199       C  0.02598506  0.18565335  0.10771789     0.35810
C1200       C  0.98231167  0.14935147  0.11756769    -0.06370
C1201       C  0.99373015  0.09858469  0.12956939    -0.33340
C1202       C  0.04758746  0.08379969  0.13199148     0.35720
H1203       H  0.11328687  0.19875145  0.10173625     0.16090
O1204       O  0.01628932  0.23537845  0.09561101    -0.60830
H1205       H  0.96072825  0.07008661  0.13742953     0.16100
O1206       O  0.05651147  0.03336806  0.14342249    -0.60930
H1207       H  0.05823982  0.03852373  0.16655050     0.43100
H1208       H  0.01074899  0.22847680  0.07280383     0.43050
C1209       C  0.11533440  0.10336022  0.28486479    -0.06010
C1210       C  0.13211201  0.05778309  0.26822508    -0.33440
C1211       C  0.16970956  0.06437982  0.24328083     0.35810
C1212       C  0.19396358  0.11668151  0.23626342    -0.06370
C1213       C  0.17731036  0.16203089  0.25279390    -0.33340
C1214       C  0.13639649  0.15592158  0.27583753     0.35720
H1215       H  0.11455112  0.01736567  0.27379448     0.16090
O1216       O  0.18167035  0.01966488  0.22543076    -0.60830
H1217       H  0.19267853  0.20263634  0.24606478     0.16100
O1218       O  0.11435931  0.20185426  0.28741631    -0.60930
H1219       H  0.09051682  0.21398114  0.27048728     0.43100
H1220       H  0.15311118  0.01631041  0.20889184     0.43050
C1221       C  0.37247251  0.02908928  0.22020252    -0.06010
C1222       C  0.42992634  0.02712132  0.21935078    -0.33440
C1223       C  0.45984146  0.02515410  0.24724302     0.35810
C1224       C  0.43244156  0.02827797  0.27641578    -0.06370
C1225       C  0.37490957  0.02476416  0.27718272    -0.33340
C1226       C  0.34483484  0.02366191  0.24936017     0.35720
H1227       H  0.45194987  0.03112814  0.19722888     0.16090
O1228       O  0.51616563  0.02722991  0.24571738    -0.60830
H1229       H  0.35326837  0.02682155  0.29945438     0.16100
O1230       O  0.28881440  0.02490381  0.25134621    -0.60930
H1231       H  0.27488112  0.98621283  0.25321305     0.43100
H1232       H  0.52554502  0.98862652  0.24545651     0.43050
loop_ 
_geom_bond_atom_site_label_1 
_geom_bond_atom_site_label_2 
_geom_bond_distance 
_geom_bond_site_symmetry_2 
_ccdc_geom_bond_type 
O1            C9   1.232       .  A
O1          Co21   1.939       .  S
O2           C10   1.274       .  A
O2          Co22   2.003       .  S
O3           C11   1.259       .  A
O3          Co23   1.972       .  S
O4           C12   1.247       .  A
O4          Co24   1.970       .  S
O5           C11   1.266       .  A
O5          Co22   2.009       .  S
O6           C12   1.261       .  A
O6          Co21   2.011       .  S
O7           C10   1.278       .  A
O7          Co24   1.964       .  S
O8            C9   1.250       .  A
O8          Co23   2.024       .  S
C9         C1212   1.464       .  S
C10        C1149   1.482       .  S
C11        C1173   1.477       .  S
C12        C1197   1.471       .  S
O13          C26   1.252       .  A
O13         Co21   1.934   1_565  S
O14          C27   1.241       .  A
O14         Co22   1.937       .  S
O15          C28   1.264       .  A
O15         Co23   1.959       .  S
O16          C29   1.241       .  A
O16         Co24   1.983       .  S
O17          C29   1.248       .  A
O17         Co22   2.010       .  S
O18          C28   1.275       .  A
O18         Co21   2.027       .  S
O19          C26   1.283   1_545  A
O19         Co24   2.082       .  S
O20          C27   1.260       .  A
O20         Co23   2.022       .  S
Co21         O25   2.071       .  S
Co22         O25   2.166       .  S
Co23         O25   2.132       .  S
Co24         O25   1.998       .  S
C26        C1164   1.493       .  S
C27        C1188   1.474       .  S
C28        C1221   1.478       .  S
C29        C1137   1.478       .  S
O30          C38   1.262       .  A
O30         Co50   1.975       .  S
O31          C39   1.247       .  A
O31         Co51   1.960       .  S
O32          C40   1.234       .  A
O32         Co52   1.964       .  S
O33          C41   1.256       .  A
O33         Co53   1.936       .  S
O34          C40   1.241       .  A
O34         Co51   1.995       .  S
O35          C41   1.276       .  A
O35         Co50   2.032       .  S
O36          C39   1.263       .  A
O36         Co53   2.042       .  S
O37          C38   1.266       .  A
O37         Co52   2.018       .  S
C38        C1176   1.479       .  S
C39        C1077   1.497       .  S
C40        C1065   1.459       .  S
C41        C1092   1.455       .  S
O42          C55   1.221       .  A
O42         Co50   1.918       .  S
O43          C56   1.289       .  A
O43         Co51   2.028       .  S
O44          C57   1.249       .  A
O44         Co52   1.975       .  S
O45          C58   1.266       .  A
O45         Co53   1.970       .  S
O46          C58   1.268       .  A
O46         Co51   2.014       .  S
O47          C57   1.258       .  A
O47         Co50   2.012       .  S
O48          C55   1.257       .  A
O48         Co53   2.067       .  S
O49          C56   1.266       .  A
O49         Co52   1.914       .  S
Co50         O54   2.098       .  S
Co51         O54   2.200       .  S
Co52         O54   1.941       .  S
Co53         O54   2.162       .  S
C55        C1125   1.495       .  S
C56        C1104   1.441       .  S
C57        C1113   1.447       .  S
C58        C1161   1.496       .  S
O59          C67   1.290       .  A
O59         Co79   2.052       .  S
O60          C68   1.258       .  A
O60         Co80   1.950       .  S
O61          C69   1.262       .  A
O61         Co81   1.986       .  S
O62          C70   1.258       .  A
O62         Co82   1.999       .  S
O63          C69   1.267       .  A
O63         Co80   1.991       .  S
O64          C70   1.251       .  A
O64         Co79   1.948       .  S
O65          C68   1.281       .  A
O65         Co82   2.064       .  S
O66          C67   1.265       .  A
O66         Co81   1.900       .  S
C67        C1200   1.469       .  S
C68        C1044   1.482       .  S
C69        C1053   1.483       .  S
C70        C1020   1.477   1_545  S
O71          C84   1.291       .  A
O71         Co79   2.067       .  S
O72          C85   1.249       .  A
O72         Co80   1.949       .  S
O73          C86   1.247       .  A
O73         Co81   1.943       .  S
O74          C87   1.263       .  A
O74         Co82   1.967       .  S
O75          C87   1.267       .  A
O75         Co80   1.989       .  S
O76          C86   1.254       .  A
O76         Co79   1.981       .  S
O77          C84   1.277       .  A
O77         Co82   1.931       .  S
O78          C85   1.256       .  A
O78         Co81   1.995       .  S
Co79         O83   2.176       .  S
Co80         O83   2.036       .  S
Co81         O83   1.950       .  S
Co82         O83   1.996       .  S
C84         C993   1.486       .  S
C85        C1029   1.457       .  S
C86        C1008   1.463       .  S
C87        C1185   1.470       .  S
O88          C96   1.255       .  A
O88        Co108   1.966       .  S
O89          C97   1.271       .  A
O89        Co109   1.974       .  S
O90          C98   1.275       .  A
O90        Co110   1.881       .  S
O91          C99   1.261       .  A
O91        Co111   1.972       .  S
O92          C98   1.304       .  A
O92        Co109   2.090       .  S
O93          C99   1.273       .  A
O93        Co108   2.021       .  S
O94          C97   1.277       .  A
O94        Co111   1.995       .  S
O95          C96   1.259       .  A
O95        Co110   1.978       .  S
C96        C1101   1.464       .  S
C97         C969   1.506       .  S
C98         C981   1.482       .  S
C99        C1032   1.464       .  S
O100        C113   1.259       .  A
O100       Co108   1.955       .  S
O101        C114   1.239       .  A
O101       Co109   1.952       .  S
O102        C115   1.281       .  A
O102       Co110   2.033       .  S
O103        C116   1.239       .  A
O103       Co111   1.917       .  S
O104        C116   1.264       .  A
O104       Co109   2.009       .  S
O105        C115   1.265       .  A
O105       Co108   1.938       .  S
O106        C113   1.275       .  A
O106       Co111   2.057       .  S
O107        C114   1.246       .  A
O107       Co110   1.973       .  S
Co108       O112   2.056       .  S
Co109       O112   2.195       .  S
Co110       O112   1.943       .  S
Co111       O112   2.020       .  S
C113        C945   1.498       .  S
C114       C1017   1.469       .  S
C115        C957   1.453       .  S
C116       C1089   1.457       .  S
O117        C125   1.245       .  A
O117       Co137   2.031       .  S
O118        C126   1.279       .  A
O118       Co138   2.075       .  S
O119        C127   1.277       .  A
O119       Co139   2.036       .  S
O120        C128   1.259       .  A
O120       Co140   2.015       .  S
O121        C127   1.256       .  A
O121       Co138   1.919       .  S
O122        C128   1.243       .  A
O122       Co137   1.957       .  S
O123        C126   1.239       .  A
O123       Co140   1.926       .  S
O124        C125   1.229       .  A
O124       Co139   1.986       .  S
C125       C1152   1.485       .  S
C126        C885   1.480       .  S
C127        C936   1.465       .  S
C128        C897   1.476       .  S
O129        C142   1.275       .  A
O129       Co137   2.037       .  S
O130        C143   1.261       .  A
O130       Co138   2.016       .  S
O131        C144   1.278       .  A
O131       Co139   1.945       .  S
O132        C145   1.255       .  A
O132       Co140   2.060       .  S
O133        C145   1.225       .  A
O133       Co138   1.939       .  S
O134        C144   1.283       .  A
O134       Co137   2.006       .  S
O135        C142   1.250       .  A
O135       Co140   1.939       .  S
O136        C143   1.249       .  A
O136       Co139   1.990       .  S
Co137       O141   2.203       .  S
Co138       O141   2.096       .  S
Co139       O141   1.939       .  S
Co140       O141   2.118       .  S
C142        C924   1.486       .  S
C143        C909   1.474       .  S
C144       C1068   1.453       .  S
C145        C876   1.468       .  S
O146        C154   1.242       .  A
O146       Co166   1.985       .  S
O147        C155   1.258       .  A
O147       Co167   1.962       .  S
O148        C156   1.258       .  A
O148       Co168   1.972       .  S
O149        C157   1.265   1_565  A
O149       Co169   1.948       .  S
O150        C156   1.261       .  A
O150       Co167   2.024       .  S
O151        C157   1.274   1_565  A
O151       Co166   2.032       .  S
O152        C155   1.272       .  A
O152       Co169   2.031       .  S
O153        C154   1.239       .  A
O153       Co168   2.000       .  S
C154       C1140   1.486       .  S
C155        C837   1.483       .  S
C156        C849   1.482       .  S
C157        C933   1.465       .  S
O158        C171   1.273       .  A
O158       Co166   2.025       .  S
O159        C172   1.272       .  A
O159       Co167   1.997       .  S
O160        C173   1.283       .  A
O160       Co168   2.031       .  S
O161        C174   1.223       .  A
O161       Co169   1.922       .  S
O162        C174   1.252       .  A
O162       Co167   2.050       .  S
O163        C173   1.274       .  A
O163       Co166   1.955       .  S
O164        C171   1.257       .  A
O164       Co169   1.987       .  S
O165        C172   1.264       .  A
O165       Co168   1.977       .  S
Co166       O170   2.005       .  S
Co167       O170   2.159       .  S
Co168       O170   2.165       .  S
Co169       O170   2.072       .  S
C171        C864   1.487       .  S
C172        C921   1.490       .  S
C173       C1080   1.491       .  S
C174        C825   1.489       .  S
O175        C183   1.256       .  A
O175       Co195   1.994       .  S
O176        C184   1.265       .  A
O176       Co196   2.077       .  S
O177        C185   1.266       .  A
O177       Co197   2.032       .  S
O178        C186   1.263       .  A
O178       Co198   2.034       .  S
O179        C185   1.251       .  A
O179       Co196   1.966       .  S
O180        C186   1.246       .  A
O180       Co195   1.953       .  S
O181        C184   1.228       .  A
O181       Co198   1.940       .  S
O182        C183   1.244       .  A
O182       Co197   1.955       .  S
C183       C1005   1.467       .  S
C184        C792   1.497       .  S
C185        C816   1.479       .  S
C186        C912   1.470       .  S
O187        C200   1.259       .  A
O187       Co195   2.000       .  S
O188        C201   1.266       .  A
O188       Co196   2.033       .  S
O189        C202   1.262       .  A
O189       Co197   2.043       .  S
O190        C203   1.265       .  A
O190       Co198   2.068       .  S
O191        C203   1.229       .  A
O191       Co196   1.940       .  S
O192        C202   1.248       .  A
O192       Co195   1.964       .  S
O193        C200   1.253       .  A
O193       Co198   1.967       .  S
O194        C201   1.244       .  A
O194       Co197   1.950       .  S
Co195       O199   2.115       .  S
Co196       O199   2.147       .  S
Co197       O199   2.141       .  S
Co198       O199   2.145       .  S
C200        C801   1.461       .  S
C201        C900   1.478       .  S
C202        C948   1.498       .  S
C203        C777   1.494       .  S
O204        C212   1.255       .  A
O204       Co224   1.957       .  S
O205        C213   1.276       .  A
O205       Co225   1.983       .  S
O206        C214   1.280       .  A
O206       Co226   2.038       .  S
O207        C215   1.280       .  A
O207       Co227   2.063       .  S
O208        C214   1.259       .  A
O208       Co225   1.937       .  S
O209        C215   1.242       .  A
O209       Co224   1.937       .  S
O210        C213   1.279       .  A
O210       Co227   2.059       .  S
O211        C212   1.266       .  A
O211       Co226   1.999       .  S
C212        C960   1.454       .  S
C213        C765   1.513       .  S
C214        C804   1.465       .  S
C215        C861   1.485       .  S
O216        C229   1.283   1_565  A
O216       Co224   2.046       .  S
O217        C230   1.278       .  A
O217       Co225   2.055       .  S
O218        C231   1.265       .  A
O218       Co226   1.981       .  S
O219        C232   1.278       .  A
O219       Co227   1.980       .  S
O220        C232   1.275       .  A
O220       Co225   2.043       .  S
O221        C231   1.272       .  A
O221       Co224   2.019       .  S
O222        C229   1.265   1_565  A
O222       Co227   1.956       .  S
O223        C230   1.253       .  A
O223       Co226   1.933       .  S
Co224       O228   2.016       .  S
Co225       O228   2.036       .  S
Co226       O228   2.034       .  S
Co227       O228   2.048       .  S
C229        C813   1.483       .  S
C230        C852   1.488       .  S
C231        C996   1.486       .  S
C232        C753   1.502       .  S
O233        C241   1.225       .  A
O233       Co253   1.936       .  S
O234        C242   1.264       .  A
O234       Co254   1.967   1_455  S
O235        C243   1.257       .  A
O235       Co255   1.959       .  S
O236        C244   1.250       .  A
O236       Co256   1.985       .  S
O237        C243   1.267       .  A
O237       Co254   2.008       .  S
O238        C244   1.265       .  A
O238       Co253   2.028       .  S
O239        C242   1.286       .  A
O239       Co256   2.026       .  S
O240        C241   1.257   1_655  A
O240       Co255   2.058       .  S
C241        C873   1.468       .  S
C242        C693   1.499       .  S
C243        C720   1.476       .  S
C244        C741   1.476       .  S
O245        C258   1.268       .  A
O245       Co253   1.946       .  S
O246        C259   1.239       .  A
O246       Co254   1.932       .  S
O247        C260   1.234       .  A
O247       Co255   1.923       .  S
O248        C261   1.226       .  A
O248       Co256   1.967   1_655  S
O249        C261   1.245       .  A
O249       Co254   2.028       .  S
O250        C260   1.281       .  A
O250       Co253   2.104   1_655  S
O251        C258   1.290       .  A
O251       Co256   2.061       .  S
O252        C259   1.262       .  A
O252       Co255   2.015       .  S
Co253       O257   2.097   1_455  S
Co254       O257   2.170       .  S
Co255       O257   2.114       .  S
Co256       O257   1.976   1_455  S
C258        C705   1.488       .  S
C259        C729   1.463       .  S
C260        C789   1.500       .  S
C261        C684   1.476       .  S
O262        C270   1.279   1_455  A
O262       Co282   1.949       .  S
O263        C271   1.262       .  A
O263       Co283   1.965       .  S
O264        C272   1.271       .  A
O264       Co284   2.046       .  S
O265        C273   1.280       .  A
O265       Co285   2.040       .  S
O266        C272   1.255       .  A
O266       Co283   1.954       .  S
O267        C273   1.269   1_655  A
O267       Co282   1.956   1_655  S
O268        C271   1.275       .  A
O268       Co285   2.016   1_655  S
O269        C270   1.289       .  A
O269       Co284   2.083       .  S
C270        C768   1.500       .  S
C271        C645   1.461       .  S
C272        C657   1.487       .  S
C273        C708   1.493       .  S
O274        C287   1.282       .  A
O274       Co282   2.048       .  S
O275        C288   1.279       .  A
O275       Co283   2.021       .  S
O276        C289   1.276       .  A
O276       Co284   1.935   1_455  S
O277        C290   1.268       .  A
O277       Co285   2.003       .  S
O278        C290   1.275   1_655  A
O278       Co283   2.013       .  S
O279        C289   1.280       .  A
O279       Co282   2.054       .  S
O280        C287   1.261       .  A
O280       Co285   1.951       .  S
O281        C288   1.271   1_455  A
O281       Co284   1.962   1_455  S
Co282       O286   1.991   1_455  S
Co283       O286   1.989       .  S
Co284       O286   2.022       .  S
Co285       O286   2.017   1_455  S
C287        C669   1.489       .  S
C288        C717   1.482   1_565  S
C289        C828   1.481       .  S
C290        C633   1.503       .  S
O291        C299   1.237       .  A
O291       Co311   1.924       .  S
O292        C300   1.279       .  A
O292       Co312   2.026       .  S
O293        C301   1.258       .  A
O293       Co313   1.931       .  S
O294        C302   1.247       .  A
O294       Co314   1.974       .  S
O295        C301   1.281       .  A
O295       Co312   2.043       .  S
O296        C302   1.264       .  A
O296       Co311   2.031       .  S
O297        C300   1.283       .  A
O297       Co314   1.972       .  S
O298        C299   1.276       .  A
O298       Co313   2.064       .  S
C299        C888   1.475       .  S
C300        C585   1.492       .  S
C301        C609   1.462       .  S
C302        C744   1.490       .  S
O303        C316   1.266       .  A
O303       Co311   1.929       .  S
O304        C317   1.246       .  A
O304       Co312   1.973       .  S
O305        C318   1.228       .  A
O305       Co313   1.927       .  S
O306        C319   1.282       .  A
O306       Co314   2.048       .  S
O307        C319   1.272       .  A
O307       Co312   1.954       .  S
O308        C318   1.275       .  A
O308       Co311   2.094       .  S
O309        C316   1.292       .  A
O309       Co314   2.060       .  S
O310        C317   1.260       .  A
O310       Co313   2.018       .  S
Co311       O315   2.071       .  S
Co312       O315   2.012       .  S
Co313       O315   2.053       .  S
Co314       O315   2.031       .  S
C316        C624   1.481       .  S
C317        C732   1.468       .  S
C318        C780   1.497       .  S
C319        C600   1.474       .  S
O320        C328   1.261       .  A
O320       Co340   1.957       .  S
O321        C329   1.247       .  A
O321       Co341   2.006       .  S
O322        C330   1.288   1_565  A
O322       Co342   2.068       .  S
O323        C331   1.263       .  A
O323       Co343   1.970       .  S
O324        C330   1.269   1_565  A
O324       Co341   1.934       .  S
O325        C331   1.267       .  A
O325       Co340   2.014       .  S
O326        C329   1.254       .  A
O326       Co343   2.033       .  S
O327        C328   1.281       .  A
O327       Co342   2.051       .  S
C328        C840   1.483       .  S
C329        C561   1.497       .  S
C330        C621   1.470       .  S
C331        C672   1.477       .  S
O332        C345   1.264       .  A
O332       Co340   1.984       .  S
O333        C346   1.295       .  A
O333       Co341   2.057       .  S
O334        C347   1.247       .  A
O334       Co342   2.009       .  S
O335        C348   1.259       .  A
O335       Co343   1.961       .  S
O336        C348   1.286       .  A
O336       Co341   2.075       .  S
O337        C347   1.258       .  A
O337       Co340   2.030       .  S
O338        C345   1.263       .  A
O338       Co343   1.991       .  S
O339        C346   1.276       .  A
O339       Co342   1.942       .  S
Co340       O344   2.083       .  S
Co341       O344   2.032       .  S
Co342       O344   2.050       .  S
Co343       O344   2.092       .  S
C345        C612   1.469       .  S
C346        C660   1.488       .  S
C347        C756   1.510       .  S
C348        C573   1.497       .  S
O349        C357   1.276   1_455  A
O349       Co369   2.036       .  S
O350        C358   1.257       .  A
O350       Co370   2.051       .  S
O351        C359   1.263       .  A
O351       Co371   1.994       .  S
O352        C360   1.283       .  A
O352       Co372   1.967       .  S
O353        C359   1.262       .  A
O353       Co370   1.964       .  S
O354        C360   1.278       .  A
O354       Co369   2.013       .  S
O355        C358   1.239       .  A
O355       Co372   1.986   1_655  S
O356        C357   1.258       .  A
O356       Co371   1.949       .  S
C357       C1056   1.462       .  S
C358        C696   1.508       .  S
C359        C513   1.455       .  S
C360        C549   1.475       .  S
O361        C374   1.268       .  A
O361       Co369   1.936       .  S
O362        C375   1.263   1_545  A
O362       Co370   1.998       .  S
O363        C376   1.253       .  A
O363       Co371   2.016   1_455  S
O364        C377   1.290       .  A
O364       Co372   2.107       .  S
O365        C377   1.249       .  A
O365       Co370   1.950   1_455  S
O366        C376   1.246       .  A
O366       Co369   1.994       .  S
O367        C374   1.287       .  A
O367       Co372   2.045       .  S
O368        C375   1.257   1_545  A
O368       Co371   1.964       .  S
Co369       O373   2.016   1_455  S
Co370       O373   2.062       .  S
Co371       O373   2.076       .  S
Co372       O373   2.067   1_455  S
C374        C525   1.469       .  S
C375        C540   1.457       .  S
C376       C1209   1.476       .  S
C377        C636   1.499       .  S
O378        C386   1.269   1_655  A
O378       Co398   1.930       .  S
O379        C387   1.270       .  A
O379       Co399   2.043       .  S
O380        C388   1.278       .  A
O380       Co400   2.041       .  S
O381        C389   1.261       .  A
O381       Co401   2.006       .  S
O382        C388   1.273       .  A
O382       Co399   1.979       .  S
O383        C389   1.247   1_455  A
O383       Co398   1.986   1_455  S
O384        C387   1.238   1_655  A
O384       Co401   1.922       .  S
O385        C386   1.281       .  A
O385       Co400   2.041       .  S
C386       C1116   1.463       .  S
C387        C681   1.481   1_455  S
C388        C501   1.496       .  S
C389        C552   1.476       .  S
O390        C403   1.279       .  A
O390       Co398   2.054       .  S
O391        C404   1.265       .  A
O391       Co399   2.020       .  S
O392        C405   1.270   1_455  A
O392       Co400   1.936       .  S
O393        C406   1.268       .  A
O393       Co401   2.012       .  S
O394        C406   1.255       .  A
O394       Co399   1.941   1_655  S
O395        C405   1.286       .  A
O395       Co398   2.056       .  S
O396        C403   1.261       .  A
O396       Co401   1.951       .  S
O397        C404   1.249   1_655  A
O397       Co400   1.963   1_655  S
Co398       O402   2.035       .  S
Co399       O402   2.090   1_455  S
Co400       O402   2.019   1_455  S
Co401       O402   2.056       .  S
C403        C489   1.484       .  S
C404        C537   1.470   1_455  S
C405        C984   1.473       .  S
C406        C648   1.465       .  S
O407        C415   1.295       .  A
O407       Co427   2.108       .  S
O408        C416   1.266       .  A
O408       Co428   1.983       .  S
O409        C417   1.262   1_545  A
O409       Co429   1.945       .  S
O410        C418   1.260       .  A
O410       Co430   1.962       .  S
O411        C417   1.290   1_545  A
O411       Co428   2.082       .  S
O412        C418   1.267       .  A
O412       Co427   2.009       .  S
O413        C416   1.269       .  A
O413       Co430   2.017       .  S
O414        C415   1.264       .  A
O414       Co429   1.903       .  S
C415       C1224   1.472       .  S
C416        C564   1.495       .  S
C417        C465   1.498       .  S
C418        C528   1.471       .  S
O419        C432   1.274       .  A
O419       Co427   1.981       .  S
O420        C433   1.249       .  A
O420       Co428   1.952       .  S
O421        C434   1.289       .  A
O421       Co429   2.075       .  S
O422        C435   1.276       .  A
O422       Co430   2.020       .  S
O423        C435   1.266       .  A
O423       Co428   1.973       .  S
O424        C434   1.274       .  A
O424       Co427   1.937       .  S
O425        C432   1.284       .  A
O425       Co430   2.046       .  S
O426        C433   1.262       .  A
O426       Co429   2.018       .  S
Co427       O431   2.018       .  S
Co428       O431   2.008       .  S
Co429       O431   2.005       .  S
Co430       O431   2.015       .  S
C432        C477   1.492       .  S
C433        C516   1.462       .  S
C434       C1041   1.494       .  S
C435        C597   1.473       .  S
O436        C444   1.268       .  A
O436       Co456   2.033       .  S
O437        C445   1.271       .  A
O437       Co457   1.995       .  S
O438        C446   1.269       .  A
O438       Co458   1.968       .  S
O439        C447   1.254       .  A
O439       Co459   1.949       .  S
O440        C446   1.284       .  A
O440       Co457   2.052       .  S
O441        C447   1.278       .  A
O441       Co456   2.063       .  S
O442        C445   1.262       .  A
O442       Co459   1.987       .  S
O443        C444   1.283       .  A
O443       Co458   1.999       .  S
C444       C1128   1.507       .  S
C445        C588   1.474       .  S
C446        C480   1.495       .  S
C447        C504   1.505       .  S
O448        C461   1.269       .  A
O448       Co456   1.966       .  S
O449        C462   1.261       .  A
O449       Co457   1.958       .  S
O450        C463   1.274       .  A
O450       Co458   2.044       .  S
O451        C464   1.271       .  A
O451       Co459   2.011       .  S
O452        C464   1.270       .  A
O452       Co457   1.997       .  S
O453        C463   1.278       .  A
O453       Co456   1.989       .  S
O454        C461   1.287       .  A
O454       Co459   2.057       .  S
O455        C462   1.280       .  A
O455       Co458   2.054       .  S
Co456       O460   2.036       .  S
Co457       O460   2.022       .  S
Co458       O460   2.042       .  S
Co459       O460   2.015       .  S
C461        C468   1.488       .  S
C462        C492   1.495       .  S
C463        C972   1.503       .  S
C464        C576   1.485       .  S
C465        C466   1.411       .  A
C465        C470   1.413       .  A
C466        C467   1.402       .  A
C466        H471   1.084       .  S
C467        C468   1.405       .  A
C467        O472   1.372       .  S
C468        C469   1.408       .  A
C469        C470   1.412       .  A
C469        H473   1.083       .  S
C470        O474   1.370       .  S
O472        H476   0.992       .  S
O474        H475   0.992       .  S
C477        C478   1.406       .  A
C477        C482   1.410       .  A
C478        C479   1.407       .  A
C478        H483   1.084       .  S
C479        C480   1.412       .  A
C479        O484   1.371       .  S
C480        C481   1.408       .  A
C481        C482   1.408       .  A
C481        H485   1.083       .  S
C482        O486   1.371       .  S
O484        H488   0.992       .  S
O486        H487   0.992       .  S
C489        C490   1.398       .  A
C489        C494   1.412       .  A
C490        C491   1.396       .  A
C490        H495   1.085       .  S
C491        C492   1.417       .  A
C491        O496   1.376       .  S
C492        C493   1.410       .  A
C493        C494   1.416       .  A
C493        H497   1.083       .  S
C494        O498   1.371       .  S
O496        H500   0.992       .  S
O498        H499   0.992       .  S
C501        C502   1.397       .  A
C501        C506   1.418       .  A
C502        C503   1.395       .  A
C502        H507   1.084       .  S
C503        C504   1.423       .  A
C503        O508   1.373       .  S
C504        C505   1.409       .  A
C505        C506   1.419       .  A
C505        H509   1.083       .  S
C506        O510   1.371       .  S
O508        H512   0.992       .  S
O510        H511   0.992       .  S
C513        C514   1.402       .  A
C513        C518   1.400       .  A
C514        C515   1.399       .  A
C514        H519   1.084   1_545  S
C515        C516   1.406       .  A
C515        O520   1.370   1_545  S
C516        C517   1.404       .  A
C517        C518   1.392       .  A
C517        H521   1.084       .  S
C518        O522   1.372       .  S
O520        H524   0.991       .  S
O522        H523   0.992       .  S
C525        C526   1.404       .  A
C525        C530   1.409       .  A
C526        C527   1.403       .  A
C526        H531   1.083       .  S
C527        C528   1.411       .  A
C527        O532   1.371       .  S
C528        C529   1.401       .  A
C529        C530   1.388       .  A
C529        H533   1.084       .  S
C530        O534   1.373       .  S
O532        H536   0.992       .  S
O534        H535   0.992       .  S
C537        C538   1.404   1_655  A
C537        C542   1.412       .  A
C538        C539   1.399       .  A
C538        H543   1.084       .  S
C539        C540   1.404   1_455  A
C539        O544   1.372       .  S
C540        C541   1.397       .  A
C541        C542   1.394       .  A
C541        H545   1.084       .  S
C542        O546   1.372       .  S
O544        H548   0.992       .  S
O546        H547   0.991       .  S
C549        C550   1.399       .  A
C549        C554   1.415   1_455  A
C550        C551   1.406       .  A
C550        H555   1.083       .  S
C551        C552   1.416   1_455  A
C551        O556   1.372       .  S
C552        C553   1.395       .  A
C553        C554   1.394       .  A
C553        H557   1.084       .  S
C554        O558   1.373       .  S
O556        H560   0.992       .  S
O558        H559   0.992       .  S
C561        C562   1.412       .  A
C561        C566   1.411       .  A
C562        C563   1.421   1_565  A
C562        H567   1.083       .  S
C563        C564   1.414       .  A
C563        O568   1.370       .  S
C564        C565   1.399       .  A
C565        C566   1.390   1_545  A
C565        H569   1.084       .  S
C566        O570   1.371       .  S
O568        H572   0.992       .  S
O570        H571   0.993       .  S
C573        C574   1.412       .  A
C573        C578   1.412       .  A
C574        C575   1.413       .  A
C574        H579   1.084       .  S
C575        C576   1.409       .  A
C575        O580   1.371       .  S
C576        C577   1.396       .  A
C577        C578   1.401       .  A
C577        H581   1.079       .  S
C578        O582   1.365       .  S
O580        H584   0.991       .  S
O582        H583   0.992       .  S
C585        C586   1.410       .  A
C585        C590   1.421       .  A
C586        C587   1.415       .  A
C586        H591   1.083       .  S
C587        C588   1.411       .  A
C587        O592   1.369       .  S
C588        C589   1.389       .  A
C589        C590   1.385       .  A
C589        H593   1.085       .  S
C590        O594   1.372       .  S
O592        H596   0.992       .  S
O594        H595   0.991       .  S
C597        C598   1.401       .  A
C597        C602   1.407       .  A
C598        C599   1.402       .  A
C598        H603   1.082       .  S
C599        C600   1.409       .  A
C599        O604   1.369       .  S
C600        C601   1.405       .  A
C601        C602   1.402       .  A
C601        H605   1.084       .  S
C602        O606   1.371       .  S
O604        H608   0.991       .  S
O606        H607   0.992       .  S
C609        C610   1.403       .  A
C609        C614   1.405       .  A
C610        C611   1.404       .  A
C610        H615   1.084       .  S
C611        C612   1.408       .  A
C611        O616   1.371       .  S
C612        C613   1.402       .  A
C613        C614   1.394       .  A
C613        H617   1.084       .  S
C614        O618   1.374       .  S
O616        H620   0.992       .  S
O618        H619   0.992       .  S
C621        C622   1.390       .  A
C621        C626   1.413       .  A
C622        C623   1.393       .  A
C622        H627   1.085       .  S
C623        C624   1.413       .  A
C623        O628   1.366       .  S
C624        C625   1.400       .  A
C625        C626   1.410       .  A
C625        H629   1.083       .  S
C626        O630   1.370       .  S
O628        H632   0.993       .  S
O630        H631   0.991       .  S
C633        C634   1.398   1_455  A
C633        C638   1.421   1_565  A
C634        C635   1.390   1_565  A
C634        H639   1.084       .  S
C635        C636   1.418   1_655  A
C635        O640   1.372       .  S
C636        C637   1.408       .  A
C637        C638   1.424       .  A
C637        H641   1.083       .  S
C638        O642   1.371       .  S
O640        H644   0.992   1_545  S
O642        H643   0.992   1_545  S
C645        C646   1.398       .  A
C645        C650   1.404       .  A
C646        C647   1.394       .  A
C646        H651   1.084       .  S
C647        C648   1.408       .  A
C647        O652   1.371       .  S
C648        C649   1.405       .  A
C649        C650   1.401       .  A
C649        H653   1.084       .  S
C650        O654   1.370       .  S
O652        H656   0.991       .  S
O654        H655   0.991       .  S
C657        C658   1.406       .  A
C657        C662   1.414       .  A
C658        C659   1.413       .  A
C658        H663   1.083       .  S
C659        C660   1.416       .  A
C659        O664   1.371       .  S
C660        C661   1.400       .  A
C661        C662   1.390       .  A
C661        H665   1.084       .  S
C662        O666   1.373       .  S
O664        H668   0.991   1_565  S
O666        H667   0.992       .  S
C669        C670   1.406       .  A
C669        C674   1.418       .  A
C670        C671   1.408       .  A
C670        H675   1.083       .  S
C671        C672   1.412       .  A
C671        O676   1.371       .  S
C672        C673   1.396       .  A
C673        C674   1.394       .  A
C673        H677   1.084       .  S
C674        O678   1.373       .  S
O676        H680   0.992       .  S
O678        H679   0.992       .  S
C681        C682   1.417       .  A
C681        C686   1.400   1_655  A
C682        C683   1.395       .  A
C682        H687   1.084       .  S
C683        C684   1.397       .  A
C683        O688   1.373       .  S
C684        C685   1.413   1_655  A
C685        C686   1.401       .  A
C685        H689   1.076       .  S
C686        O690   1.371       .  S
O688        H692   0.991       .  S
O690        H691   0.992       .  S
C693        C694   1.414       .  A
C693        C698   1.405       .  A
C694        C695   1.403   1_455  A
C694        H699   1.084       .  S
C695        C696   1.408       .  A
C695        O700   1.374       .  S
C696        C697   1.414       .  A
C697        C698   1.417   1_655  A
C697        H701   1.073       .  S
C698        O702   1.374       .  S
O700        H704   0.992       .  S
O702        H703   0.991   1_455  S
C705        C706   1.407   1_455  A
C705        C710   1.408       .  A
C706        C707   1.394       .  A
C706        H711   1.084       .  S
C707        C708   1.410   1_655  A
C707        O712   1.372       .  S
C708        C709   1.414       .  A
C709        C710   1.410       .  A
C709        H713   1.083       .  S
C710        O714   1.371       .  S
O712        H716   0.991       .  S
O714        H715   0.992       .  S
C717        C718   1.406   1_655  A
C717        C722   1.414       .  A
C718        C719   1.400       .  A
C718        H723   1.083       .  S
C719        C720   1.410   1_455  A
C719        O724   1.372       .  S
C720        C721   1.402       .  A
C721        C722   1.395       .  A
C721        H725   1.084       .  S
C722        O726   1.372       .  S
O724        H728   0.992       .  S
O726        H727   0.992       .  S
C729        C730   1.392       .  A
C729        C734   1.414       .  A
C730        C731   1.394       .  A
C730        H735   1.084       .  S
C731        C732   1.410       .  A
C731        O736   1.364       .  S
C732        C733   1.396       .  A
C733        C734   1.399       .  A
C733        H737   1.084       .  S
C734        O738   1.373       .  S
O736        H740   0.992       .  S
O738        H739   0.992       .  S
C741        C742   1.406       .  A
C741        C746   1.402       .  A
C742        C743   1.409       .  A
C742        H747   1.084       .  S
C743        C744   1.411       .  A
C743        O748   1.371       .  S
C744        C745   1.410       .  A
C745        C746   1.397       .  A
C745        H749   1.084       .  S
C746        O750   1.372       .  S
O748        H752   0.992       .  S
O750        H751   0.992       .  S
C753        C754   1.409       .  A
C753        C758   1.410       .  A
C754        C755   1.403       .  A
C754        H759   1.081       .  S
C755        C756   1.412       .  A
C755        O760   1.371       .  S
C756        C757   1.415       .  A
C757        C758   1.420       .  A
C757        H761   1.082       .  S
C758        O762   1.371       .  S
O760        H764   0.992       .  S
O762        H763   0.992       .  S
C765        C766   1.416       .  A
C765        C770   1.417       .  A
C766        C767   1.429       .  A
C766        H771   1.083       .  S
C767        C768   1.415       .  A
C767        O772   1.370       .  S
C768        C769   1.398       .  A
C769        C770   1.394       .  A
C769        H773   1.082       .  S
C770        O774   1.374       .  S
O772        H776   0.992       .  S
O774        H775   0.992       .  S
C777        C778   1.394       .  A
C777        C782   1.423       .  A
C778        C779   1.398       .  A
C778        H783   1.083       .  S
C779        C780   1.426       .  A
C779        O784   1.370       .  S
C780        C781   1.397       .  A
C781        C782   1.407       .  A
C781        H785   1.082       .  S
C782        O786   1.369       .  S
O784        H788   0.991       .  S
O786        H787   0.992       .  S
C789        C790   1.420       .  A
C789        C794   1.406       .  A
C790        C791   1.402       .  A
C790        H795   1.084       .  S
C791        C792   1.401       .  A
C791        O796   1.370       .  S
C792        C793   1.418       .  A
C793        C794   1.408       .  A
C793        H797   1.083       .  S
C794        O798   1.370       .  S
O796        H800   0.992       .  S
O798        H799   0.992       .  S
C801        C802   1.400       .  A
C801        C806   1.405       .  A
C802        C803   1.395       .  A
C802        H807   1.084       .  S
C803        C804   1.409       .  A
C803        O808   1.374       .  S
C804        C805   1.403       .  A
C805        C806   1.398       .  A
C805        H809   1.084       .  S
C806        O810   1.372       .  S
O808        H812   0.992       .  S
O810        H811   0.992       .  S
C813        C814   1.408       .  A
C813        C818   1.408       .  A
C814        C815   1.404       .  A
C814        H819   1.084       .  S
C815        C816   1.406       .  A
C815        O820   1.371       .  S
C816        C817   1.405       .  A
C817        C818   1.404       .  A
C817        H821   1.084       .  S
C818        O822   1.371       .  S
O820        H824   0.992       .  S
O822        H823   0.992       .  S
C825        C826   1.417       .  A
C825        C830   1.403       .  A
C826        C827   1.401       .  A
C826        H831   1.082       .  S
C827        C828   1.400       .  A
C827        O832   1.370       .  S
C828        C829   1.415       .  A
C829        C830   1.402       .  A
C829        H833   1.082       .  S
C830        O834   1.372       .  S
O832        H836   0.991       .  S
O834        H835   0.992       .  S
C837        C838   1.403       .  A
C837        C842   1.411       .  A
C838        C839   1.402       .  A
C838        H843   1.084       .  S
C839        C840   1.414       .  A
C839        O844   1.372       .  S
C840        C841   1.401       .  A
C841        C842   1.406       .  A
C841        H845   1.083       .  S
C842        O846   1.370       .  S
O844        H848   0.991   1_565  S
O846        H847   0.991       .  S
C849        C850   1.395       .  A
C849        C854   1.414       .  A
C850        C851   1.389       .  A
C850        H855   1.084       .  S
C851        C852   1.417       .  A
C851        O856   1.374       .  S
C852        C853   1.406       .  A
C853        C854   1.415       .  A
C853        H857   1.083       .  S
C854        O858   1.370       .  S
O856        H860   0.992       .  S
O858        H859   0.992       .  S
C861        C862   1.411       .  A
C861        C866   1.410       .  A
C862        C863   1.416   1_655  A
C862        H867   1.083       .  S
C863        C864   1.410       .  A
C863        O868   1.373       .  S
C864        C865   1.405       .  A
C865        C866   1.406   1_455  A
C865        H869   1.082       .  S
C866        O870   1.372       .  S
O868        H872   0.992       .  S
O870        H871   0.992       .  S
C873        C874   1.409       .  A
C873        C878   1.400       .  A
C874        C875   1.399       .  A
C874        H879   1.079       .  S
C875        C876   1.400       .  A
C875        O880   1.372       .  S
C876        C877   1.410       .  A
C877        C878   1.400       .  A
C877        H881   1.079       .  S
C878        O882   1.372       .  S
O880        H884   0.992       .  S
O882        H883   0.992       .  S
C885        C886   1.401       .  A
C885        C890   1.418       .  A
C886        C887   1.396       .  A
C886        H891   1.081       .  S
C887        C888   1.418       .  A
C887        O892   1.373       .  S
C888        C889   1.394       .  A
C889        C890   1.397       .  A
C889        H893   1.080       .  S
C890        O894   1.369       .  S
O892        H896   0.992       .  S
O894        H895   0.992       .  S
C897        C898   1.408       .  A
C897        C902   1.403       .  A
C898        C899   1.402       .  A
C898        H903   1.084       .  S
C899        C900   1.403       .  A
C899        O904   1.371       .  S
C900        C901   1.410       .  A
C901        C902   1.403       .  A
C901        H905   1.084       .  S
C902        O906   1.371       .  S
O904        H908   0.992       .  S
O906        H907   0.992       .  S
C909        C910   1.400       .  A
C909        C914   1.412       .  A
C910        C911   1.396   1_455  A
C910        H915   1.084       .  S
C911        C912   1.409       .  A
C911        O916   1.373       .  S
C912        C913   1.401       .  A
C913        C914   1.403   1_655  A
C913        H917   1.083       .  S
C914        O918   1.372       .  S
O916        H920   0.992       .  S
O918        H919   0.992       .  S
C921        C922   1.414       .  A
C921        C926   1.406       .  A
C922        C923   1.393       .  A
C922        H927   1.083       .  S
C923        C924   1.404       .  A
C923        O928   1.372       .  S
C924        C925   1.414       .  A
C925        C926   1.406       .  A
C925        H929   1.084       .  S
C926        O930   1.371       .  S
O928        H932   0.992       .  S
O930        H931   0.992       .  S
C933        C934   1.395       .  A
C933        C938   1.412       .  A
C934        C935   1.384       .  A
C934        H939   1.084       .  S
C935        C936   1.411       .  A
C935        O940   1.374       .  S
C936        C937   1.400       .  A
C937        C938   1.405       .  A
C937        H941   1.083       .  S
C938        O942   1.370       .  S
O940        H944   0.992       .  S
O942        H943   0.992       .  S
C945        C946   1.407       .  A
C945        C950   1.412       .  A
C946        C947   1.393   1_554  A
C946        H951   1.084       .  S
C947        C948   1.412       .  A
C947        O952   1.372       .  S
C948        C949   1.413   1_556  A
C949        C950   1.417       .  A
C949        H953   1.083       .  S
C950        O954   1.370       .  S
O952        H956   0.991       .  S
O954        H955   0.992       .  S
C957        C958   1.399       .  A
C957        C962   1.408       .  A
C958        C959   1.397       .  A
C958        H963   1.084       .  S
C959        C960   1.407   1_554  A
C959        O964   1.372       .  S
C960        C961   1.395       .  A
C961        C962   1.392   1_556  A
C961        H965   1.082       .  S
C962        O966   1.372       .  S
O964        H968   0.992       .  S
O966        H967   0.991       .  S
C969        C970   1.408       .  A
C969        C974   1.412       .  A
C970        C971   1.407       .  A
C970        H975   1.084       .  S
C971        C972   1.408       .  A
C971        O976   1.370       .  S
C972        C973   1.411       .  A
C973        C974   1.417       .  A
C973        H977   1.074       .  S
C974        O978   1.371       .  S
O976        H980   0.989       .  S
O978        H979   0.991       .  S
C981        C982   1.407       .  A
C981        C986   1.412       .  A
C982        C983   1.404       .  A
C982        H987   1.083       .  S
C983        C984   1.409       .  A
C983        O988   1.371   1_655  S
C984        C985   1.402       .  A
C985        C986   1.394       .  A
C985        H989   1.084       .  S
C986        O990   1.372       .  S
O988        H992   0.992       .  S
O990        H991   0.992       .  S
C993        C994   1.406       .  A
C993        C998   1.407   1_545  A
C994        C995   1.403   1_554  A
C994        H999   1.081       .  S
C995        C996   1.404   1_545  A
C995       O1000   1.371       .  S
C996        C997   1.411   1_556  A
C997        C998   1.412       .  A
C997       H1001   1.084       .  S
C998       O1002   1.371       .  S
O1000      H1004   0.991       .  S
O1002      H1003   0.992       .  S
C1005      C1006   1.403   1_556  A
C1005      C1010   1.412       .  A
C1006      C1007   1.391       .  A
C1006      H1011   1.084       .  S
C1007      C1008   1.407       .  A
C1007      O1012   1.372       .  S
C1008      C1009   1.400       .  A
C1009      C1010   1.392   1_554  A
C1009      H1013   1.081       .  S
C1010      O1014   1.372       .  S
O1012      H1016   0.992       .  S
O1014      H1015   0.992       .  S
C1017      C1018   1.401       .  A
C1017      C1022   1.407       .  A
C1018      C1019   1.394       .  A
C1018      H1023   1.084       .  S
C1019      C1020   1.413       .  A
C1019      O1024   1.372       .  S
C1020      C1021   1.407       .  A
C1021      C1022   1.399       .  A
C1021      H1025   1.084       .  S
C1022      O1026   1.372       .  S
O1024      H1028   0.992       .  S
O1026      H1027   0.992       .  S
C1029      C1030   1.401       .  A
C1029      C1034   1.407       .  A
C1030      C1031   1.403       .  A
C1030      H1035   1.084       .  S
C1031      C1032   1.408       .  A
C1031      O1036   1.371       .  S
C1032      C1033   1.399       .  A
C1033      C1034   1.391       .  A
C1033      H1037   1.085       .  S
C1034      O1038   1.376       .  S
O1036      H1040   0.992       .  S
O1038      H1039   0.992       .  S
C1041      C1042   1.408       .  A
C1041      C1046   1.415       .  A
C1042      C1043   1.393       .  A
C1042      H1047   1.083       .  S
C1043      C1044   1.407       .  A
C1043      O1048   1.372       .  S
C1044      C1045   1.408       .  A
C1045      C1046   1.414       .  A
C1045      H1049   1.083       .  S
C1046      O1050   1.371       .  S
O1048      H1052   0.992       .  S
O1050      H1051   0.992       .  S
C1053      C1054   1.409       .  A
C1053      C1058   1.412       .  A
C1054      C1055   1.394       .  A
C1054      H1059   1.083       .  S
C1055      C1056   1.403       .  A
C1055      O1060   1.372       .  S
C1056      C1057   1.402       .  A
C1057      C1058   1.400       .  A
C1057      H1061   1.084   1_655  S
C1058      O1062   1.371       .  S
O1060      H1064   0.992       .  S
O1062      H1063   0.992       .  S
C1065      C1066   1.407       .  A
C1065      C1070   1.401       .  A
C1066      C1067   1.400   1_554  A
C1066      H1071   1.084       .  S
C1067      C1068   1.401       .  A
C1067      O1072   1.371       .  S
C1068      C1069   1.404   1_556  A
C1069      C1070   1.387       .  A
C1069      H1073   1.080   1_554  S
C1070      O1074   1.373       .  S
O1072      H1076   0.992       .  S
O1074      H1075   0.992       .  S
C1077      C1078   1.410       .  A
C1077      C1082   1.414       .  A
C1078      C1079   1.412       .  A
C1078      H1083   1.083       .  S
C1079      C1080   1.411   1_554  A
C1079      O1084   1.371       .  S
C1080      C1081   1.405       .  A
C1081      C1082   1.399   1_556  A
C1081      H1085   1.084       .  S
C1082      O1086   1.372       .  S
O1084      H1088   0.991       .  S
O1086      H1087   0.992       .  S
C1089      C1090   1.391       .  A
C1089      C1094   1.415       .  A
C1090      C1091   1.387       .  A
C1090      H1095   1.084       .  S
C1091      C1092   1.410       .  A
C1091      O1096   1.367       .  S
C1092      C1093   1.396       .  A
C1093      C1094   1.397       .  A
C1093      H1097   1.084       .  S
C1094      O1098   1.373       .  S
O1096      H1100   0.992       .  S
O1098      H1099   0.992       .  S
C1101      C1102   1.403       .  A
C1101      C1106   1.416       .  A
C1102      C1103   1.396       .  A
C1102      H1107   1.083       .  S
C1103      C1104   1.401   1_655  A
C1103      O1108   1.369   1_655  S
C1104      C1105   1.391   1_455  A
C1105      C1106   1.384       .  A
C1105      H1109   1.085   1_655  S
C1106      O1110   1.372       .  S
O1108      H1112   0.992   1_455  S
O1110      H1111   0.992       .  S
C1113      C1114   1.391       .  A
C1113      C1118   1.404       .  A
C1114      C1115   1.385       .  A
C1114      H1119   1.084       .  S
C1115      C1116   1.413       .  A
C1115      O1120   1.372       .  S
C1116      C1117   1.403       .  A
C1117      C1118   1.400       .  A
C1117      H1121   1.083       .  S
C1118      O1122   1.371       .  S
O1120      H1124   0.992       .  S
O1122      H1123   0.992       .  S
C1125      C1126   1.419       .  A
C1125      C1130   1.396       .  A
C1126      C1127   1.415       .  A
C1126      H1131   1.082       .  S
C1127      C1128   1.405       .  A
C1127      O1132   1.370       .  S
C1128      C1129   1.420       .  A
C1129      C1130   1.402       .  A
C1129      H1133   1.078       .  S
C1130      O1134   1.371       .  S
O1132      H1136   0.991       .  S
O1134      H1135   0.992       .  S
C1137      C1138   1.390       .  A
C1137      C1142   1.408   1_545  A
C1138      C1139   1.378   1_554  A
C1138      H1143   1.067       .  S
C1139      C1140   1.407   1_545  A
C1139      O1144   1.369       .  S
C1140      C1141   1.415       .  A
C1141      C1142   1.419   1_556  A
C1141      H1145   1.083       .  S
C1142      O1146   1.370       .  S
O1144      H1148   0.992   1_545  S
O1146      H1147   0.992   1_565  S
C1149      C1150   1.406   1_554  A
C1149      C1154   1.410       .  A
C1150      C1151   1.414       .  A
C1150      H1155   1.078       .  S
C1151      C1152   1.408       .  A
C1151      O1156   1.376       .  S
C1152      C1153   1.403       .  A
C1153      C1154   1.400   1_556  A
C1153      H1157   1.079   1_556  S
C1154      O1158   1.373       .  S
O1156      H1160   0.991       .  S
O1158      H1159   0.992       .  S
C1161      C1162   1.419       .  A
C1161      C1166   1.404       .  A
C1162      C1163   1.411       .  A
C1162      H1167   1.083       .  S
C1163      C1164   1.403       .  A
C1163      O1168   1.370       .  S
C1164      C1165   1.414       .  A
C1165      C1166   1.398       .  A
C1165      H1169   1.084       .  S
C1166      O1170   1.372       .  S
O1168      H1172   0.991       .  S
O1170      H1171   0.992       .  S
C1173      C1174   1.405       .  A
C1173      C1178   1.407       .  A
C1174      C1175   1.397       .  A
C1174      H1179   1.084       .  S
C1175      C1176   1.408       .  A
C1175      O1180   1.372       .  S
C1176      C1177   1.408       .  A
C1177      C1178   1.402       .  A
C1177      H1181   1.084       .  S
C1178      O1182   1.372       .  S
O1180      H1184   0.992       .  S
O1182      H1183   0.992       .  S
C1185      C1186   1.400       .  A
C1185      C1190   1.412       .  A
C1186      C1187   1.393       .  A
C1186      H1191   1.084       .  S
C1187      C1188   1.416       .  A
C1187      O1192   1.372       .  S
C1188      C1189   1.401       .  A
C1189      C1190   1.395       .  A
C1189      H1193   1.083       .  S
C1190      O1194   1.372       .  S
O1192      H1196   0.992       .  S
O1194      H1195   0.992       .  S
C1197      C1198   1.407       .  A
C1197      C1202   1.409       .  A
C1198      C1199   1.398       .  A
C1198      H1203   1.084       .  S
C1199      C1200   1.406   1_455  A
C1199      O1204   1.372       .  S
C1200      C1201   1.404       .  A
C1201      C1202   1.390   1_655  A
C1201      H1205   1.084       .  S
C1202      O1206   1.372       .  S
O1204      H1208   0.992       .  S
O1206      H1207   0.992       .  S
C1209      C1210   1.398       .  A
C1209      C1214   1.415       .  A
C1210      C1211   1.402       .  A
C1210      H1215   1.084       .  S
C1211      C1212   1.413       .  A
C1211      O1216   1.372       .  S
C1212      C1213   1.390       .  A
C1213      C1214   1.396       .  A
C1213      H1217   1.084       .  S
C1214      O1218   1.366       .  S
O1216      H1220   0.992       .  S
O1218      H1219   0.992       .  S
C1221      C1222   1.403       .  A
C1221      C1226   1.413       .  A
C1222      C1223   1.402       .  A
C1222      H1227   1.084       .  S
C1223      C1224   1.410       .  A
C1223      O1228   1.370       .  S
C1224      C1225   1.398       .  A
C1225      C1226   1.397       .  A
C1225      H1229   1.084       .  S
C1226      O1230   1.369       .  S
O1228      H1232   0.991   1_545  S
O1230      H1231   0.992   1_545  S
