geometry optimzed in LAMMPS
_audit_creation_date              2020-12-01 
_audit_creation_method            'lammps2cif' 
_symmetry_space_group_name_H-M    'P1' 
_symmetry_Int_Tables_number       1 
_symmetry_cell_setting            triclinic 
loop_ 
_symmetry_equiv_pos_as_xyz 
  x,y,z 
_cell_length_a                    34.80292268 
_cell_length_b                    34.41548202238522 
_cell_length_c                    34.76608975845973 
_cell_angle_alpha                 90.88904645544368 
_cell_angle_beta                  89.00769693053847 
_cell_angle_gamma                 87.35078940673611 
loop_ 
_atom_site_label 
_atom_site_type_symbol 
_atom_site_fract_x 
_atom_site_fract_y 
_atom_site_fract_z 
_atom_site_charge 
C1          C  0.90811505  0.88001195  0.40538654     0.79900
N2          N  0.92393176  0.89566506  0.37346009    -0.78400
C3          C  0.91986574  0.93437792  0.36685056     0.82300
N4          N  0.89960537  0.95736624  0.39278622    -0.78400
C5          C  0.88335603  0.94196300  0.42457781     0.82400
N6          N  0.88788551  0.90335393  0.43087013    -0.80100
C7          C  0.91242086  0.12288810  0.50922404     0.79900
N8          N  0.93259657  0.12167919  0.54245201    -0.78400
C9          C  0.92924345  0.09059512  0.56623445     0.82300
N10         N  0.90568272  0.06164319  0.55635195    -0.78400
C11         C  0.88491752  0.06351948  0.52384388     0.82400
N12         N  0.88869547  0.09419367  0.50080221    -0.80100
C13         C  0.11517113  0.95024282  0.30655606     0.79900
N14         N  0.12373380  0.96376473  0.34215602    -0.78400
C15         C  0.09795040  0.98661066  0.36285966     0.82300
N16         N  0.06336941  0.99584952  0.34724121    -0.78400
C17         C  0.05365024  0.98206792  0.31221981     0.82400
N18         N  0.07966731  0.95873655  0.29221671    -0.80100
C19         C  0.09635530  0.93598175  0.58360884     0.79900
N20         N  0.09914989  0.93876181  0.54454977    -0.78400
C21         C  0.08538969  0.97142627  0.52682236     0.82300
N22         N  0.07038852  0.00163224  0.54835668    -0.78400
C23         C  0.06795373  0.99970574  0.58702433     0.82400
N24         N  0.08083834  0.96672341  0.60432032    -0.80100
C25         C  0.90543935  0.10834633  0.76526844     0.79900
N26         N  0.93188822  0.11574780  0.79242203    -0.78400
C27         C  0.96994495  0.10803658  0.78536219     0.82300
N28         N  0.98168243  0.09437567  0.74985609    -0.78400
C29         C  0.95552248  0.08584030  0.72295363     0.82400
N30         N  0.91769852  0.09296593  0.73092154    -0.80100
C31         C  0.08516373  0.20485768  0.68454766     0.79900
N32         N  0.07919456  0.20373062  0.72345940    -0.78400
C33         C  0.07037483  0.17004847  0.74032666     0.82300
N34         N  0.06596861  0.13811004  0.71800834    -0.78400
C35         C  0.07138215  0.13877366  0.67947328     0.82400
N36         N  0.08176130  0.17221226  0.66273784    -0.80100
C37         C  0.42944456  0.68253884  0.54166698     0.79900
N38         N  0.41663150  0.64612676  0.54348191    -0.78400
C39         C  0.42607451  0.61913577  0.51603349     0.82300
N40         N  0.44964761  0.62824559  0.48673367    -0.78400
C41         C  0.46261613  0.66473341  0.48394603     0.82400
N42         N  0.45157226  0.69261681  0.51090959    -0.80100
C43         C  0.62406275  0.47547904  0.70252506     0.79900
N44         N  0.62307303  0.46644053  0.66438983    -0.78400
C45         C  0.59500471  0.48157417  0.64187531     0.82300
N46         N  0.56826057  0.50670934  0.65796154    -0.78400
C47         C  0.56825953  0.51599404  0.69599399     0.82400
N48         N  0.59550524  0.49911855  0.71862483    -0.80100
C49         C  0.63176682  0.56678417  0.31868857     0.79900
N50         N  0.62288657  0.56879398  0.28083731    -0.78400
C51         C  0.59743262  0.54441152  0.26531145     0.82300
N52         N  0.58066857  0.51852311  0.28860276    -0.78400
C53         C  0.58856816  0.51711263  0.32649059     0.82400
N54         N  0.61406058  0.54150471  0.34157838    -0.80100
C55         C  0.58162177  0.35603400  0.44951861     0.79900
N56         N  0.58273101  0.36766866  0.48710471    -0.78400
C57         C  0.56319118  0.40075874  0.49954725     0.82300
N58         N  0.54359392  0.42275070  0.47381532    -0.78400
C59         C  0.54304887  0.41236439  0.43618676     0.82400
N60         N  0.56174851  0.37875517  0.42463441    -0.80100
C61         C  0.41897372  0.60795556  0.30429589     0.79900
N62         N  0.44258671  0.59663852  0.27413595    -0.78400
C63         C  0.48048387  0.60464864  0.27457990     0.82300
N64         N  0.49494682  0.62379650  0.30536664    -0.78400
C65         C  0.47146086  0.63515096  0.33525482     0.82400
N66         N  0.43398867  0.62694274  0.33449614    -0.80100
C67         C  0.38563325  0.45115939  0.64486579     0.79900
N68         N  0.40968309  0.46775141  0.66995057    -0.78400
C69         C  0.42962919  0.49880179  0.65983430     0.82300
N70         N  0.42579531  0.51257833  0.62380603    -0.78400
C71         C  0.40179806  0.49605207  0.59859274     0.82400
N72         N  0.38078296  0.46583290  0.60929354    -0.80100
C73         C  0.55315497  0.13615295  0.95935499     0.79900
N74         N  0.51704145  0.15295263  0.96437661    -0.78400
C75         C  0.49268451  0.13954758  0.99175812     0.82300
N76         N  0.50418678  0.10933192  0.01366803    -0.78400
C77         C  0.53943788  0.09197340  0.00859937     0.82400
N78         N  0.56409405  0.10569718  0.98182228    -0.80100
C79         C  0.72690362  0.82041408  0.07429779     0.79900
N80         N  0.75073561  0.84987469  0.06827886    -0.78400
C81         C  0.74153741  0.87931021  0.04440237     0.82300
N82         N  0.70774703  0.87838764  0.02548909    -0.78400
C83         C  0.68364854  0.84873741  0.03015438     0.82400
N84         N  0.69361233  0.81998740  0.05477025    -0.80100
C85         C  0.67791254  0.05345053  0.15513098     0.79900
N86         N  0.70953110  0.03515455  0.13797450    -0.78400
C87         C  0.70496040  0.01173234  0.10666004     0.82300
N88         N  0.66925851  0.00640897  0.09352054    -0.78400
C89         C  0.63781980  0.02425114  0.11027563     0.82400
N90         N  0.64245639  0.04830899  0.14093606    -0.80100
C91         C  0.35625535  0.01223099  0.90119580     0.79900
N92         N  0.32321387  0.02422211  0.92040566    -0.78400
C93         C  0.32532179  0.04491350  0.95386798     0.82300
N94         N  0.36018957  0.05357204  0.96747679    -0.78400
C95         C  0.39311059  0.04191928  0.94860774     0.82400
N96         N  0.39079575  0.02066939  0.91563009    -0.80100
C97         C  0.47684006  0.92064967  0.08961693     0.79900
N98         N  0.50918028  0.89917180  0.07870141    -0.78400
C99         C  0.53232048  0.91129846  0.04978541     0.82300
N100        N  0.52302848  0.94512254  0.03231514    -0.78400
C101        C  0.49106305  0.96668780  0.04252754     0.82400
N102        N  0.46758622  0.95412746  0.07094196    -0.80100
C103        C  0.28337791  0.21592915  0.98268115     0.79900
N104        N  0.31963079  0.21656550  0.99567058    -0.78400
C105        C  0.33447546  0.18777668  0.01745145     0.82300
N106        N  0.31164613  0.15889744  0.02841176    -0.78400
C107        C  0.27399354  0.15890533  0.01805772     0.82400
N108        N  0.26034977  0.18755823  0.99481607    -0.80100
In109      In  0.80111959  0.31823362  0.38988345     1.36900
C110        C  0.72642123  0.30472618  0.39370847     0.77200
O111        O  0.83491889  0.29313837  0.44018199    -0.61200
O112        O  0.78778207  0.33199239  0.45293008    -0.52100
C113        C  0.82408882  0.26373390  0.33342757     0.69900
O114        O  0.80825718  0.29665332  0.32734400    -0.47000
C115        C  0.80779704  0.39267763  0.36945951     0.74600
O116        O  0.75174583  0.28289226  0.40817710    -0.58800
O117        O  0.79037995  0.38295274  0.39938284    -0.48900
O118        O  0.73937326  0.32991891  0.37183285    -0.55300
C119        C  0.80978810  0.30522189  0.46515068     0.84800
O120        O  0.83289673  0.26016434  0.36837432    -0.57200
O121        O  0.83113215  0.36607776  0.35662641    -0.60500
C122        C  0.76536758  0.26257571  0.55426838     0.79900
N123        N  0.74766908  0.23213519  0.53618269    -0.78400
C124        C  0.75340711  0.22558333  0.49741781     0.82300
N125        N  0.77676299  0.24858656  0.47805598    -0.78400
C126        C  0.79413149  0.27859284  0.49416527     0.82400
N127        N  0.78751185  0.28669426  0.53250191    -0.80100
In128      In  0.75098746  0.17262487  0.39845136     1.36900
C129        C  0.82624499  0.18280393  0.40665727     0.77200
O130        O  0.71497615  0.20725474  0.44453063    -0.61200
O131        O  0.75376548  0.16464240  0.46418770    -0.52100
C132        C  0.72896198  0.22525974  0.34237559     0.69900
O133        O  0.76240957  0.21666938  0.35348476    -0.47000
C134        C  0.75287012  0.09780177  0.37058963     0.74600
O135        O  0.81410973  0.15486127  0.38735497    -0.58800
O136        O  0.76579460  0.10675673  0.40286485    -0.48900
O137        O  0.80052502  0.20826999  0.41538804    -0.55300
C138        C  0.73543207  0.19603562  0.47230151     0.84800
O139        O  0.70404203  0.20619828  0.36025084    -0.57200
O140        O  0.73083687  0.12464695  0.35771132    -0.60500
In141      In  0.80542242  0.17349500  0.25078986     1.36900
C142        C  0.73180540  0.16034408  0.25951779     0.77200
O143        O  0.82086616  0.21037841  0.19838362    -0.61200
O144        O  0.78758550  0.16205870  0.18896365    -0.52100
C145        C  0.82502024  0.23076691  0.30354991     0.69900
O146        O  0.82160032  0.23586711  0.26792750    -0.47000
C147        C  0.83497043  0.10223703  0.26433147     0.74600
O148        O  0.75672325  0.14345696  0.27955423    -0.58800
O149        O  0.85042056  0.13226112  0.27717251    -0.58500
O150        O  0.74242090  0.19184661  0.24623030    -0.55300
C151        C  0.79754994  0.19408710  0.17629247     0.84800
O152        O  0.82230220  0.19543378  0.31177032    -0.57200
O153        O  0.81624517  0.10901922  0.23447407    -0.60500
In154      In  0.72211321  0.31144704  0.25430865     1.36900
C155        C  0.79648215  0.30695088  0.23409399     0.77200
O156        O  0.68545076  0.27267774  0.21834633    -0.61200
O157        O  0.70806303  0.32078394  0.19114888    -0.52100
C158        C  0.72262467  0.25540842  0.31115477     0.69900
O159        O  0.75084857  0.26756214  0.29278517    -0.47000
C160        C  0.71566614  0.38659970  0.27733757     0.74600
O161        O  0.77158889  0.28681838  0.21911958    -0.58800
O162        O  0.72616746  0.37669199  0.24384354    -0.48900
O163        O  0.78404025  0.32820296  0.26177973    -0.55300
C164        C  0.69667696  0.28693980  0.18705720     0.84800
O165        O  0.69126740  0.27205319  0.30063140    -0.57200
O166        O  0.69933213  0.35984586  0.29514391    -0.60500
C167        C  0.74684840  0.24993039  0.09666873     0.79900
N168        N  0.71944628  0.26973064  0.11940728    -0.78400
C169        C  0.71563900  0.26093674  0.15747134     0.82300
N170        N  0.74046737  0.23441373  0.17250352    -0.78400
C171        C  0.76999266  0.21728793  0.15228436     0.82400
N172        N  0.77318069  0.22445564  0.11369169    -0.80100
C173        C  0.79286425  0.01313221  0.30752141     0.79900
N174        N  0.81582005  0.03466535  0.28388600    -0.78400
C175        C  0.82067482  0.07327719  0.29189385     0.82300
N176        N  0.80106130  0.09010354  0.32181587    -0.78400
C177        C  0.77595031  0.07129382  0.34363531     0.82400
N178        N  0.77176778  0.03217961  0.33695548    -0.80100
C179        C  0.77512461  0.47196663  0.30171458     0.79900
N180        N  0.79636107  0.45397200  0.33011573    -0.78400
C181        C  0.78636881  0.41838532  0.34292505     0.82300
N182        N  0.75586662  0.40167772  0.32793993    -0.78400
C183        C  0.73606053  0.41681665  0.29865109     0.82400
N184        N  0.74633548  0.45195896  0.28437794    -0.80100
In185      In  0.86471470  0.81136929  0.23495349     1.36900
C186        C  0.86810335  0.79244574  0.30911674     0.77200
O187        O  0.91152972  0.78334436  0.19575843    -0.61200
O188        O  0.92843288  0.82139515  0.23938650    -0.52100
C189        C  0.81283416  0.75627757  0.21617395     0.69900
O190        O  0.81618057  0.77531234  0.24666254    -0.47000
C191        C  0.83897423  0.88643191  0.24127567     0.74600
O192        O  0.84472249  0.81813647  0.29711604    -0.58800
O193        O  0.87078172  0.87469082  0.25413722    -0.48900
O194        O  0.88635235  0.77395575  0.28295040    -0.55300
C195        C  0.93833515  0.79332960  0.21737702     0.84800
O196        O  0.83635766  0.76681530  0.19045663    -0.57200
O197        O  0.82617203  0.86319145  0.21647423    -0.60500
In198      In  0.71339101  0.80795041  0.31206254     1.36900
C199        C  0.71921141  0.80292046  0.23528853     0.77200
O200        O  0.66659117  0.76863234  0.33305891    -0.61200
O201        O  0.64834977  0.81851823  0.30334811    -0.52100
C202        C  0.77316063  0.75373154  0.32436867     0.69900
O203        O  0.76770419  0.77598578  0.29680580    -0.47000
C204        C  0.73309346  0.88188107  0.32679670     0.74600
O205        O  0.69694642  0.78302362  0.25456020    -0.58800
O206        O  0.70647341  0.87343535  0.30474371    -0.48900
O207        O  0.74005824  0.82384410  0.25529103    -0.55300
C208        C  0.64029401  0.78481629  0.31326516     0.84800
O209        O  0.74721230  0.75959378  0.35029618    -0.57200
O210        O  0.74183214  0.85441689  0.34939412    -0.60500
C211        C  0.79035507  0.96946111  0.30007408     0.79900
N212        N  0.76346671  0.94802860  0.31923764    -0.78400
C213        C  0.76238130  0.90861170  0.31235714     0.82300
N214        N  0.78641946  0.89184626  0.28565034    -0.78400
C215        C  0.81233372  0.91163781  0.26582024     0.82400
N216        N  0.81527566  0.95058257  0.27368822    -0.80100
In217      In  0.86592215  0.66954966  0.30357891     1.36900
C218        C  0.85981733  0.66557466  0.22788610     0.77200
O219        O  0.91544482  0.70590505  0.32511887    -0.61200
O220        O  0.93061115  0.65820954  0.28938882    -0.52100
C221        C  0.80665508  0.72350681  0.32178605     0.69900
O222        O  0.82070826  0.71415641  0.28927640    -0.47000
C223        C  0.84764887  0.59521001  0.31555354     0.74600
O224        O  0.87984279  0.69038225  0.24393428    -0.58800
O225        O  0.87756649  0.60395995  0.29774288    -0.48900
O226        O  0.83728057  0.64938088  0.25041389    -0.55300
C227        C  0.94097183  0.69005815  0.30266772     0.84800
O228        O  0.82440194  0.70576492  0.34851591    -0.57200
O229        O  0.83410621  0.62302436  0.33656792    -0.60500
C230        C  0.78447217  0.51247630  0.28923882     0.79900
N231        N  0.81240393  0.53212045  0.30825105    -0.78400
C232        C  0.82159647  0.56828026  0.29645757     0.82300
N233        N  0.80345801  0.58384968  0.26624558    -0.78400
C234        C  0.77509316  0.56672015  0.24785515     0.82400
N235        N  0.76436437  0.53099559  0.26019364    -0.80100
C236        C  0.02546365  0.73561150  0.25087116     0.79900
N237        N  0.00432743  0.76254742  0.23014165    -0.78400
C238        C  0.96516623  0.76336684  0.23262321     0.82300
N239        N  0.94804862  0.73928858  0.25672416    -0.78400
C240        C  0.96714749  0.71425042  0.27923025     0.82400
N241        N  0.00657412  0.71111306  0.27560762    -0.80100
In242      In  0.72867140  0.67103099  0.22749162     1.36900
C243        C  0.72481262  0.67119052  0.30317005     0.77200
O244        O  0.68112801  0.70653544  0.19618106    -0.61200
O245        O  0.66424958  0.66003391  0.22897652    -0.52100
C246        C  0.78255379  0.72582156  0.21475557     0.69900
O247        O  0.76081783  0.72249213  0.24362593    -0.47000
C248        C  0.75127690  0.59490598  0.22517186     0.74600
O249        O  0.75155701  0.65275939  0.28504531    -0.58800
O250        O  0.71867847  0.60649396  0.23771135    -0.48900
O251        O  0.70756369  0.69681804  0.28371568    -0.55300
C252        C  0.65369395  0.69166946  0.21428495     0.84800
O253        O  0.77613300  0.70087578  0.18849077    -0.57200
O254        O  0.76701174  0.62002824  0.20449403    -0.60500
C255        C  0.56243582  0.74881088  0.24814155     0.79900
N256        N  0.57869437  0.76882282  0.27819991    -0.78400
C257        C  0.61624212  0.76072146  0.28788911     0.82300
N258        N  0.63722011  0.73470700  0.26628230    -0.78400
C259        C  0.62371707  0.71678074  0.23508804     0.82400
N260        N  0.58569702  0.72317822  0.22587604    -0.80100
In261      In  0.36453286  0.74749429  0.15716744     1.36900
C262        C  0.37691584  0.82269666  0.16544862     0.77200
O263        O  0.40813104  0.70646742  0.18765124    -0.61200
O264        O  0.43062995  0.74213474  0.14635854    -0.52100
C265        C  0.30664242  0.73054898  0.21003117     0.69900
O266        O  0.32413605  0.76158349  0.20744088    -0.47000
C267        C  0.33696695  0.75325481  0.08456794     0.74600
O268        O  0.35141323  0.81077101  0.14367961    -0.58800
O269        O  0.36886384  0.76583027  0.09373589    -0.48900
O270        O  0.38869979  0.79786969  0.18901184    -0.55300
C271        C  0.43755685  0.72358578  0.17646454     0.84800
O272        O  0.31911538  0.70569038  0.18491176    -0.57200
O273        O  0.32501160  0.72928251  0.10872063    -0.60500
C274        C  0.28015697  0.80385182  0.00541911     0.79900
N275        N  0.30783397  0.77976730  0.02232872    -0.78400
C276        C  0.30940187  0.77771723  0.06164316     0.82300
N277        N  0.28495208  0.80081268  0.08300743    -0.78400
C278        C  0.25751990  0.82442285  0.06762546     0.82400
N279        N  0.25416699  0.82521031  0.02851086    -0.80100
In280      In  0.21654703  0.80262353  0.15944464     1.36900
C281        C  0.23758275  0.73723062  0.11985606     0.77200
O282        O  0.15096357  0.80544038  0.17961966    -0.61200
O283        O  0.18847518  0.75637087  0.18857803    -0.52100
C284        C  0.26814770  0.82576570  0.21453231     0.69900
O285        O  0.27727764  0.81373884  0.18095681    -0.47000
C286        C  0.22857193  0.84057719  0.09612672     0.74600
O287        O  0.21235302  0.76163843  0.10922109    -0.58800
O288        O  0.19766451  0.82333557  0.10026500    -0.48900
O289        O  0.25299033  0.74614217  0.15115536    -0.55300
C290        C  0.15448763  0.77045061  0.19110336     0.84800
O291        O  0.23188380  0.82950600  0.21919374    -0.57200
O292        O  0.24094795  0.85299978  0.12770126    -0.60500
In293      In  0.21893343  0.72896700  0.29956191     1.36900
C294        C  0.19104329  0.80130458  0.28838290     0.77200
O295        O  0.19040476  0.67691403  0.27328865    -0.61200
O296        O  0.15788027  0.71150482  0.31321091    -0.52100
C297        C  0.27441184  0.72627417  0.24004001     0.69900
O298        O  0.25237093  0.75472291  0.24992023    -0.47000
C299        C  0.24259823  0.73808117  0.37267739     0.74600
O300        O  0.22183699  0.79390890  0.30581769    -0.58800
O301        O  0.20864734  0.74576460  0.36313199    -0.48900
O302        O  0.17582146  0.77170018  0.27495080    -0.55300
C303        C  0.15715212  0.68869716  0.28482550     0.84800
O304        O  0.26773856  0.69663142  0.26002376    -0.57200
O305        O  0.26141653  0.71776393  0.34749481    -0.60500
C306        C  0.06849401  0.73160820  0.24473104     0.79900
N307        N  0.08744203  0.75424067  0.21843829    -0.78400
C308        C  0.12557943  0.74544344  0.20989482     0.82300
N309        N  0.14267305  0.71417686  0.22615653    -0.78400
C310        C  0.12721833  0.69630351  0.25620575     0.82400
N311        N  0.08965824  0.70528694  0.26598482    -0.80100
In312      In  0.35317808  0.80836728  0.30098133     1.36900
C313        C  0.34550953  0.73104855  0.29863189     0.77200
O314        O  0.40615717  0.83216078  0.27080957    -0.61200
O315        O  0.41502652  0.78737626  0.31069948    -0.52100
C316        C  0.29737621  0.82727466  0.24682974     0.69900
O317        O  0.29081490  0.81406536  0.27977303    -0.47000
C318        C  0.33279188  0.83342207  0.37168467     0.74600
O319        O  0.33190511  0.75230863  0.32557055    -0.58800
O320        O  0.36344973  0.81366740  0.36522009    -0.48900
O321        O  0.36117630  0.74956199  0.27234483    -0.55300
C322        C  0.42924357  0.80583908  0.28351833     0.84800
O323        O  0.33252992  0.83479630  0.24245101    -0.57200
O324        O  0.32119675  0.85126528  0.34226659    -0.60500
C325        C  0.27797405  0.79691703  0.45728329     0.79900
N326        N  0.30221530  0.81991024  0.43676315    -0.78400
C327        C  0.30430330  0.81649963  0.39752210     0.82300
N328        N  0.28451651  0.78918951  0.37985000    -0.78400
C329        C  0.26243884  0.76479070  0.39870846     0.82400
N330        N  0.25783367  0.76913306  0.43783993    -0.80100
C331        C  0.51952610  0.75515691  0.24040728     0.79900
N332        N  0.50189867  0.73581493  0.21053963    -0.78400
C333        C  0.46270601  0.74075000  0.20615957     0.82300
N334        N  0.44283180  0.76534366  0.22998096    -0.78400
C335        C  0.45862970  0.78563138  0.25808802     0.82400
N336        N  0.49714047  0.77956739  0.26468423    -0.80100
In337      In  0.23003378  0.88299994  0.80626813     1.36900
C338        C  0.30247663  0.90227305  0.80488401     0.77200
O339        O  0.19125596  0.92459267  0.77255325    -0.61200
O340        O  0.22167833  0.94892834  0.81760796    -0.52100
C341        C  0.22708535  0.82562926  0.74917550     0.69900
O342        O  0.25640113  0.83844002  0.76455148    -0.47000
C343        C  0.22653222  0.85808520  0.88009522     0.74600
O344        O  0.29136511  0.87424866  0.82435559    -0.58800
O345        O  0.23556317  0.89176830  0.87173830    -0.48900
O346        O  0.27908026  0.91373293  0.77992362    -0.55300
C347        C  0.20533151  0.95498183  0.78628776     0.84800
O348        O  0.19647943  0.84166285  0.76378254    -0.57200
O349        O  0.20892735  0.84221403  0.85288903    -0.60500
In350      In  0.31325109  0.74822150  0.80131024     1.36900
C351        C  0.23602740  0.75309786  0.79940482     0.77200
O352        O  0.30622294  0.68551841  0.81751520    -0.61200
O353        O  0.34419971  0.69658457  0.77125266    -0.52100
C354        C  0.32944317  0.80282677  0.74592684     0.69900
O355        O  0.32424391  0.81055665  0.78126730    -0.47000
C356        C  0.32968523  0.76733187  0.87304547     0.74600
O357        O  0.25647625  0.73385841  0.77525560    -0.58800
O358        O  0.31625680  0.73516245  0.86485958    -0.48900
O359        O  0.25499446  0.77253090  0.82238284    -0.55300
C360        C  0.32336704  0.67219117  0.78781382     0.84800
O361        O  0.33260932  0.76646396  0.73957683    -0.57200
O362        O  0.34642975  0.78251794  0.84481607    -0.60500
C363        C  0.27903644  0.80735059  0.96215900     0.79900
N364        N  0.25162517  0.83115901  0.94434922    -0.78400
C365        C  0.25251057  0.83411573  0.90492636     0.82300
N366        N  0.28120704  0.81557317  0.88491147    -0.78400
C367        C  0.30809861  0.79241106  0.90117256     0.82400
N368        N  0.30636710  0.78689977  0.93991422    -0.80100
In369      In  0.29073662  0.88399730  0.66079109     1.36900
C370        C  0.21683683  0.86664851  0.66213561     0.77200
O371        O  0.31407731  0.93845636  0.69132400    -0.61200
O372        O  0.26901620  0.94705113  0.65304026    -0.52100
C373        C  0.32343167  0.83325829  0.71477809     0.69900
O374        O  0.32169062  0.82549129  0.67935434    -0.47000
C375        C  0.30147125  0.86711007  0.58459823     0.74600
O376        O  0.24294808  0.84466171  0.64768620    -0.58800
O377        O  0.27818866  0.89337920  0.59721084    -0.48900
O378        O  0.22903036  0.89258475  0.68385795    -0.55300
C379        C  0.28682017  0.96137551  0.68056550     0.84800
O380        O  0.31275646  0.86821087  0.72178767    -0.57200
O381        O  0.32712846  0.85862079  0.60899757    -0.60500
C382        C  0.27361564  0.80215507  0.50047002     0.79900
N383        N  0.29114746  0.83211354  0.51956980    -0.78400
C384        C  0.28617844  0.83661689  0.55867618     0.82300
N385        N  0.26316222  0.81268298  0.57713438    -0.78400
C386        C  0.24577342  0.78331639  0.55991004     0.82400
N387        N  0.25183612  0.77698957  0.52128816    -0.80100
C388        C  0.24753116  0.04541616  0.74574884     0.79900
N389        N  0.22457766  0.02324904  0.76881216    -0.78400
C390        C  0.21981533  0.98477389  0.75985855     0.82300
N391        N  0.23948436  0.96864655  0.72972436    -0.78400
C392        C  0.26471069  0.98779815  0.70849775     0.82400
N393        N  0.26884458  0.02688385  0.71598566    -0.80100
In394      In  0.24633725  0.73747019  0.66036967     1.36900
C395        C  0.32103089  0.74461375  0.64481372     0.77200
O396        O  0.21705972  0.68933739  0.69522507    -0.61200
O397        O  0.26318274  0.67266659  0.65883268    -0.52100
C398        C  0.23089849  0.79418301  0.71759801     0.69900
O399        O  0.26296085  0.77772318  0.70890267    -0.47000
C400        C  0.22899791  0.75618125  0.58769285     0.74600
O401        O  0.30933812  0.72225966  0.67044425    -0.58800
O402        O  0.24701137  0.72487020  0.59512370    -0.48900
O403        O  0.29523061  0.76765095  0.63261591    -0.55300
C404        C  0.24255672  0.66315453  0.68670491     0.84800
O405        O  0.20447232  0.78129923  0.69696409    -0.57200
O406        O  0.20989691  0.76993476  0.61643947    -0.60500
C407        C  0.26498613  0.58706218  0.76248230     0.79900
N408        N  0.29253154  0.60758099  0.78105642    -0.78400
C409        C  0.30576020  0.64094883  0.76558888     0.82300
N410        N  0.28989534  0.65438769  0.73331562    -0.78400
C411        C  0.26033581  0.63773524  0.71638232     0.82400
N412        N  0.24728281  0.60359456  0.73081772    -0.80100
In413      In  0.82114316  0.25411638  0.89937219     1.36900
C414        C  0.79749125  0.32578573  0.92485181     0.77200
O415        O  0.79069363  0.20746161  0.93188365    -0.61200
O416        O  0.83171918  0.23797440  0.96194849    -0.52100
C417        C  0.76640440  0.24174412  0.84253503     0.69900
O418        O  0.78746101  0.27027889  0.84624060    -0.47000
C419        C  0.89576682  0.26366394  0.87447094     0.74600
O420        O  0.79807808  0.31615312  0.88993903    -0.58800
O421        O  0.88013891  0.28073372  0.90300103    -0.48900
O422        O  0.80680440  0.29835518  0.94635805    -0.55300
C423        C  0.80129596  0.21978944  0.96424116     0.84800
O424        O  0.77346765  0.21681581  0.86824967    -0.57200
O425        O  0.87622743  0.23583943  0.86279358    -0.60500
In426      In  0.81671541  0.32473601  0.75650973     1.36900
C427        C  0.82244891  0.24725606  0.76479896     0.77200
O428        O  0.78294598  0.35078401  0.70647316    -0.61200
O429        O  0.82867996  0.31068948  0.69298335    -0.52100
C430        C  0.75788785  0.33984679  0.81252742     0.69900
O431        O  0.79338993  0.34026956  0.81914376    -0.47000
C432        C  0.88784338  0.34758832  0.77177040     0.74600
O433        O  0.83818412  0.27044097  0.78708722    -0.58800
O434        O  0.88117568  0.32510825  0.74426180    -0.48900
O435        O  0.80191571  0.26361278  0.74016254    -0.55300
C436        C  0.79803033  0.32696660  0.68161548     0.84800
O437        O  0.75299411  0.33735860  0.77675146    -0.57200
O438        O  0.85801360  0.36741081  0.78298258    -0.60500
C439        C  0.97788082  0.31235195  0.82248672     0.79900
N440        N  0.95546035  0.33411384  0.79749264    -0.78400
C441        C  0.91604164  0.33329092  0.80012378     0.82300
N442        N  0.90003381  0.30947401  0.82525668    -0.78400
C443        C  0.92049538  0.28599672  0.84820848     0.82400
N444        N  0.95987485  0.28795354  0.84792268    -0.80100
In445      In  0.68002847  0.25441080  0.75551311     1.36900
C446        C  0.67722710  0.33236768  0.75528806     0.77200
O447        O  0.71668398  0.21760491  0.71200409    -0.61200
O448        O  0.67101562  0.25180148  0.69067692    -0.52100
C449        C  0.73670601  0.24047225  0.81050393     0.69900
O450        O  0.73650973  0.26522322  0.78428001    -0.47000
C451        C  0.60526088  0.25238049  0.77632164     0.74600
O452        O  0.66054937  0.31323204  0.78042052    -0.58800
O453        O  0.61585548  0.26603076  0.74483528    -0.48900
O454        O  0.69793134  0.31170704  0.73237017    -0.55300
C455        C  0.70326384  0.23546901  0.68333374     0.84800
O456        O  0.70805221  0.21903770  0.80790616    -0.57200
O457        O  0.63116602  0.23061833  0.79132477    -0.60500
In458      In  0.67086714  0.31379863  0.89903588     1.36900
C459        C  0.65882941  0.23783694  0.89192390     0.77200
O460        O  0.71395017  0.32786461  0.94513599    -0.61200
O461        O  0.66366726  0.30310960  0.96456879    -0.52100
C462        C  0.72594470  0.33432767  0.84334065     0.69900
O463        O  0.72052223  0.35305697  0.87485138    -0.47000
C464        C  0.59780425  0.33783565  0.88234425     0.74600
O465        O  0.68284921  0.25028759  0.91507890    -0.58800
O466        O  0.60535793  0.31728581  0.91089756    -0.48900
O467        O  0.64942213  0.26200941  0.86684337    -0.55300
C468        C  0.69792859  0.30991230  0.97201647     0.84800
O469        O  0.70306599  0.30706521  0.84124507    -0.57200
O470        O  0.62652634  0.35689733  0.87266335    -0.60500
C471        C  0.51618772  0.30626357  0.81850252     0.79900
N472        N  0.53813449  0.28095405  0.79477736    -0.78400
C473        C  0.57668903  0.27492239  0.80104654     0.82300
N474        N  0.59289481  0.29582713  0.82861259    -0.78400
C475        C  0.57324634  0.32130393  0.85185939     0.82400
N476        N  0.53410505  0.32629089  0.84763303    -0.80100
C477        C  0.74748725  0.25536704  0.05359417     0.79900
N478        N  0.77343161  0.23328785  0.03110067    -0.78400
C479        C  0.77130714  0.23440378  0.99195717     0.82300
N480        N  0.74562520  0.25924690  0.97602365    -0.78400
C481        C  0.72183962  0.28350760  0.99660940     0.82400
N482        N  0.72164481  0.28113248  0.03605828    -0.80100
C483        C  0.75974424  0.26999813  0.59723195     0.79900
N484        N  0.78053174  0.29752311  0.61637473    -0.78400
C485        C  0.77374267  0.30492581  0.65494213     0.82300
N486        N  0.74883979  0.28322328  0.67379555    -0.78400
C487        C  0.72968011  0.25492523  0.65678782     0.82400
N488        N  0.73427105  0.24851952  0.61798774    -0.80100
In489      In  0.31894477  0.25123154  0.74843518     1.36900
C490        C  0.30748693  0.24320628  0.82353995     0.77200
O491        O  0.28513389  0.21184229  0.70900600    -0.61200
O492        O  0.33015382  0.18512531  0.73896679    -0.52100
C493        C  0.26202105  0.30879148  0.73630572     0.69900
O494        O  0.26748748  0.29054426  0.76699555    -0.47000
C495        C  0.39279925  0.27211456  0.75262508     0.74600
O496        O  0.29701498  0.21948388  0.79853263    -0.58800
O497        O  0.38175989  0.24074568  0.76570510    -0.48900
O498        O  0.32230081  0.27290316  0.81006189    -0.55300
C499        C  0.29894607  0.18033101  0.72233542     0.84800
O500        O  0.28632562  0.29805872  0.71002911    -0.57200
O501        O  0.36916871  0.28720197  0.72921735    -0.60500
C502        C  0.24880964  0.08946328  0.75334621     0.79900
N503        N  0.27359504  0.11194739  0.73248664    -0.78400
C504        C  0.27218728  0.15171483  0.73786578     0.82300
N505        N  0.24805988  0.16785944  0.76460003    -0.78400
C506        C  0.22501396  0.14739990  0.78680285     0.82400
N507        N  0.22434222  0.10777826  0.78078471    -0.80100
In508      In  0.17639020  0.24805227  0.83023904     1.36900
C509        C  0.16407526  0.26888428  0.75793846     0.77200
O510        O  0.21534454  0.19351177  0.83934135    -0.61200
O511        O  0.16921308  0.18764530  0.80242785    -0.52100
C512        C  0.22611686  0.30625124  0.84610143     0.69900
O513        O  0.20297627  0.30468348  0.81901515    -0.47000
C514        C  0.10896344  0.26670686  0.86400703     0.74600
O515        O  0.14100453  0.27676439  0.78543837    -0.58800
O516        O  0.14008195  0.27597273  0.87900658    -0.48900
O517        O  0.19536366  0.25226937  0.76775163    -0.55300
C518        C  0.20054943  0.17274823  0.81357760     0.84800
O519        O  0.22412253  0.27706739  0.86794963    -0.57200
O520        O  0.11313639  0.23741101  0.84214815    -0.60500
In521      In  0.16665997  0.39378648  0.73668285     1.36900
C522        C  0.12716327  0.40324651  0.67386419     0.77200
O523        O  0.10110132  0.38153138  0.74968252    -0.61200
O524        O  0.14139363  0.37284272  0.79291753    -0.52100
C525        C  0.22935650  0.33954325  0.73362366     0.69900
O526        O  0.22007309  0.35961707  0.70494485    -0.47000
C527        C  0.18959609  0.46443922  0.76173715     0.74600
O528        O  0.14470332  0.43037335  0.68958967    -0.58800
O529        O  0.17087919  0.44144138  0.78175434    -0.48900
O530        O  0.13489577  0.36975633  0.68698674    -0.55300
C531        C  0.10678099  0.36993418  0.78337884     0.84800
O532        O  0.20733918  0.34781628  0.76165501    -0.57200
O533        O  0.19491453  0.45267721  0.72760578    -0.60500
C534        C  0.02145923  0.31608095  0.82372651     0.79900
N535        N  0.04261618  0.29165075  0.84706386    -0.78400
C536        C  0.08050747  0.29773657  0.85351788     0.82300
N537        N  0.09713073  0.32710707  0.83551538    -0.78400
C538        C  0.07923668  0.34866293  0.80868612     0.82400
N539        N  0.04066675  0.34333571  0.80246119    -0.80100
In540      In  0.30849799  0.39340847  0.83681548     1.36900
C541        C  0.31167802  0.38671008  0.76130013     0.77200
O542        O  0.31772290  0.45863518  0.83085484    -0.61200
O543        O  0.27102155  0.44242131  0.86507495    -0.52100
C544        C  0.25410980  0.33871302  0.84730757     0.69900
O545        O  0.25902909  0.35869570  0.81783317    -0.47000
C546        C  0.38341711  0.37066639  0.84631102     0.74600
O547        O  0.29049164  0.41231342  0.77830504    -0.58800
O548        O  0.37296351  0.40096535  0.82899206    -0.48900
O549        O  0.32693197  0.36175319  0.78294427    -0.55300
C550        C  0.28554952  0.46893984  0.84528693     0.84800
O551        O  0.27547999  0.34866749  0.87476555    -0.57200
O552        O  0.35664519  0.35809097  0.86718901    -0.60500
C553        C  0.47314468  0.31197387  0.81196273     0.79900
N554        N  0.45077575  0.33876894  0.83369991    -0.78400
C555        C  0.41206217  0.34330852  0.82695635     0.82300
N556        N  0.39691766  0.32274555  0.79839043    -0.78400
C557        C  0.41739966  0.29668892  0.77654252     0.82400
N558        N  0.45572679  0.29008704  0.78399160    -0.80100
C559        C  0.25322567  0.54822875  0.77862815     0.79900
N560        N  0.22393615  0.52803441  0.76265304    -0.78400
C561        C  0.21163204  0.49519607  0.78021604     0.82300
N562        N  0.22874383  0.48292046  0.81241202    -0.78400
C563        C  0.26047304  0.49863049  0.82590474     0.82400
N564        N  0.27335692  0.53135427  0.80851357    -0.80100
C565        C  0.91940998  0.42137439  0.91441581     0.79900
N566        N  0.88339834  0.43457882  0.92469373    -0.78400
C567        C  0.86848783  0.42941695  0.96033703     0.82300
N568        N  0.89094992  0.41101830  0.98657638    -0.78400
C569        C  0.92771406  0.39874738  0.97745727     0.82400
N570        N  0.94192014  0.40339531  0.94112231    -0.80100
C571        C  0.94922900  0.31845490  0.17582298     0.79900
N572        N  0.96877929  0.34412771  0.19678994    -0.78400
C573        C  0.99329873  0.36807005  0.17984495     0.82300
N574        N  0.99846342  0.36620480  0.14103804    -0.78400
C575        C  0.97953503  0.34054233  0.11914303     0.82400
N576        N  0.95459032  0.31711043  0.13693870    -0.80100
C577        C  0.06242297  0.63632412  0.81091141     0.79900
N578        N  0.07246869  0.67322047  0.80376350    -0.78400
C579        C  0.10327001  0.68737100  0.82159980     0.82300
N580        N  0.12515501  0.66385527  0.84399926    -0.78400
C581        C  0.11659342  0.62662957  0.84999078     0.82400
N582        N  0.08467866  0.61288670  0.83366692    -0.80100
C583        C  0.95668980  0.57353227  0.14652659     0.79900
N584        N  0.98690905  0.58442896  0.12454088    -0.78400
C585        C  0.02132673  0.56483637  0.12710942     0.82300
N586        N  0.02553515  0.53479549  0.15115656    -0.78400
C587        C  0.99613251  0.52323360  0.17299104     0.82400
N588        N  0.96136915  0.54273567  0.17061218    -0.80100
C589        C  0.21921030  0.60285861  0.03412593     0.79900
N590        N  0.18970703  0.59117100  0.05611597    -0.78400
C591        C  0.16068806  0.57188329  0.04085450     0.82300
N592        N  0.16156851  0.56334333  0.00287893    -0.78400
C593        C  0.19069246  0.57448079  0.97976766     0.82400
N594        N  0.21911732  0.59550825  0.99544242    -0.80100
C595        C  0.99665940  0.46602076  0.70380004     0.79900
N596        N  0.98075299  0.44472927  0.73214974    -0.78400
C597        C  0.96288772  0.46283144  0.76288177     0.82300
N598        N  0.96256016  0.50197535  0.76627204    -0.78400
C599        C  0.97953954  0.52370646  0.73933345     0.82400
N600        N  0.99653994  0.50539895  0.70816946    -0.80100
C601        C  0.05484933  0.57440316  0.10446769    -0.05800
C602        C  0.08977245  0.57509563  0.12370685    -0.33300
C603        C  0.12441368  0.57282435  0.10338683     0.36000
C604        C  0.12449975  0.57032866  0.06292813    -0.06200
C605        C  0.08923829  0.57136876  0.04352137    -0.33100
C606        C  0.05440611  0.57340359  0.06415570     0.35900
H607        H  0.09018593  0.57539186  0.15489535     0.16300
O608        O  0.15798449  0.57249883  0.12351023    -0.60600
H609        H  0.08857576  0.57076810  0.01237082     0.16300
O610        O  0.02037326  0.57280083  0.04484728    -0.60700
H611        H  0.01434236  0.54496277  0.04293778     0.43300
H612        H  0.16521033  0.54462169  0.12712508     0.43200
C613        C  0.03238606  0.61907775  0.78854754    -0.05800
C614        C  0.04015953  0.61020300  0.74973228    -0.33300
C615        C  0.01902713  0.58269880  0.73046747     0.36000
C616        C  0.98982085  0.56365628  0.75051028    -0.06200
C617        C  0.97796397  0.57810448  0.78723632    -0.33100
C618        C  0.99983248  0.60485521  0.80673585     0.35900
H619        H  0.06503787  0.62170837  0.73545872     0.16300
O620        O  0.03031157  0.57161720  0.69379901    -0.60600
H621        H  0.95451671  0.56541311  0.80278238     0.16300
O622        O  0.99066809  0.61512502  0.84420734    -0.60700
H623        H  0.99879973  0.59229440  0.85964692     0.43300
H624        H  0.01174716  0.58536187  0.67682936     0.43200
C625        C  0.14255360  0.60254424  0.87429116    -0.05800
C626        C  0.17925271  0.61597511  0.88246767    -0.33300
C627        C  0.19982087  0.60196774  0.91386716     0.36000
C628        C  0.18336913  0.57443363  0.93784079    -0.06200
C629        C  0.15109223  0.55516170  0.92451678    -0.33100
C630        C  0.13017435  0.56953011  0.89338615     0.35900
H631        H  0.19071143  0.63978417  0.86652405     0.16300
O632        O  0.23327233  0.61903771  0.92335928    -0.60600
H633        H  0.13904315  0.53216335  0.94118159     0.16300
O634        O  0.09608896  0.55336799  0.88443060    -0.60700
H635        H  0.07661252  0.56602921  0.90228743     0.43300
H636        H  0.25411688  0.59959889  0.91596754     0.43200
C637        C  0.00022938  0.40519491  0.19907080    -0.05800
C638        C  0.03494242  0.42247937  0.19146177    -0.33300
C639        C  0.03581575  0.46285314  0.18905942     0.36000
C640        C  0.00104893  0.48589292  0.19328144    -0.06200
C641        C  0.96865153  0.46895652  0.20899797    -0.33100
C642        C  0.96815586  0.42863838  0.21235808     0.35900
H643        H  0.06015171  0.40467998  0.18259969     0.16300
O644        O  0.06985299  0.47891086  0.17881861    -0.60600
H645        H  0.94217166  0.48617784  0.21422848     0.16300
O646        O  0.93398849  0.41250448  0.22171748    -0.60700
H647        H  0.93230093  0.41380388  0.25017083     0.43300
H648        H  0.07471380  0.47129994  0.15146101     0.43200
C649        C  0.95009150  0.37763775  0.00660336    -0.05800
C650        C  0.93711416  0.34222107  0.01985598    -0.33300
C651        C  0.95066197  0.32651862  0.05424057     0.36000
C652        C  0.97627639  0.34740420  0.07697710    -0.06200
C653        C  0.99257219  0.38049225  0.06104122    -0.33100
C654        C  0.97948645  0.39568556  0.02618160     0.35900
H655        H  0.91476775  0.32779610  0.00457179     0.16300
O656        O  0.93620759  0.29240835  0.06665728    -0.60600
H657        H  0.01308675  0.39671860  0.07706638     0.16300
O658        O  0.99329970  0.42987367  0.01313326    -0.60700
H659        H  0.97866203  0.45074965  0.02785378     0.43300
H660        H  0.95604673  0.27196744  0.05923811     0.43200
C661        C  0.93131933  0.42431013  0.87335198    -0.05800
C662        C  0.90285056  0.43458969  0.84644733    -0.33300
C663        C  0.91268492  0.44381361  0.80880558     0.36000
C664        C  0.95125559  0.44135204  0.79675720    -0.06200
C665        C  0.97958794  0.42773723  0.82217428    -0.33100
C666        C  0.96989605  0.41925825  0.86040127     0.35900
H667        H  0.87275369  0.43752451  0.85490447     0.16300
O668        O  0.88457480  0.45712425  0.78444568    -0.60600
H669        H  0.00961199  0.42655802  0.81322491     0.16300
O670        O  0.99852837  0.40804773  0.88504763    -0.60700
H671        H  0.00739661  0.43255628  0.89643932     0.43300
H672        H  0.88081960  0.48534088  0.79042180     0.43200
C673        C  0.09308395  0.41196419  0.65051035    -0.05800
C674        C  0.06202279  0.38842300  0.65774011    -0.33300
C675        C  0.02711090  0.40561887  0.67157464     0.36000
C676        C  0.02272923  0.44657606  0.67439102    -0.06200
C677        C  0.04987267  0.46875753  0.65509562    -0.33100
C678        C  0.08488960  0.45126215  0.64211154     0.35900
H679        H  0.06704944  0.35740515  0.66108672     0.16300
O680        O  0.99927328  0.38238270  0.68565563    -0.60600
H681        H  0.04641736  0.50016452  0.65443504     0.16300
O682        O  0.11382354  0.47431959  0.63027657    -0.60700
H683        H  0.10731171  0.48170252  0.60363807     0.43300
H684        H  0.00975089  0.37120189  0.70965650     0.43200
C685        C  0.79133708  0.36599602  0.93989235    -0.05800
C686        C  0.79512643  0.37233814  0.97974887    -0.33300
C687        C  0.81086891  0.40669657  0.99294895     0.36000
C688        C  0.82583941  0.43144623  0.96527450    -0.06200
C689        C  0.80594913  0.43332981  0.93047974    -0.33100
C690        C  0.79246811  0.39850964  0.91565333     0.35900
H691        H  0.79124984  0.34899401  0.99981142     0.16300
O692        O  0.82117255  0.41003804  0.03067410    -0.60600
H693        H  0.81169741  0.45623029  0.91039518     0.16300
O694        O  0.78580720  0.39538312  0.87706872    -0.60700
H695        H  0.81131721  0.39710975  0.86419671     0.43300
H696        H  0.79702015  0.41792371  0.04480943     0.43200
C697        C  0.11991729  0.72368383  0.81047339    -0.05800
C698        C  0.13608419  0.74475426  0.84049531    -0.33300
C699        C  0.17366695  0.75688749  0.83684648     0.36000
C700        C  0.19380594  0.75114193  0.80159380    -0.06200
C701        C  0.17420784  0.73708915  0.76976796    -0.33100
C702        C  0.13704572  0.72402896  0.77371184     0.35900
H703        H  0.12295203  0.74461699  0.86899780     0.16300
O704        O  0.19203939  0.76849414  0.86933921    -0.60600
H705        H  0.18899400  0.73234132  0.74276886     0.16300
O706        O  0.12078001  0.70544494  0.74319907    -0.60700
H707        H  0.13346508  0.67906047  0.74186046     0.43300
H708        H  0.20381381  0.74436285  0.88012598     0.43200
C709        C  0.24203113  0.63346532  0.05154517    -0.05800
C710        C  0.24909954  0.63119209  0.09128232    -0.33300
C711        C  0.25124768  0.66497865  0.11410001     0.36000
C712        C  0.24681946  0.70152509  0.09689793    -0.06200
C713        C  0.24506810  0.70359779  0.05665340    -0.33100
C714        C  0.24300000  0.66993069  0.03388395     0.35900
H715        H  0.24800079  0.60341267  0.10545378     0.16300
O716        O  0.25169972  0.66205130  0.15341997    -0.60600
H717        H  0.24208725  0.73163301  0.04300349     0.16300
O718        O  0.23704788  0.67352332  0.99516480    -0.60700
H719        H  0.20915020  0.68005330  0.99272556     0.43300
H720        H  0.27657953  0.64840356  0.15926926     0.43200
C721        C  0.86909189  0.64946828  0.18916670    -0.05800
C722        C  0.86036497  0.61046273  0.18265140    -0.33300
C723        C  0.88693403  0.58490030  0.16377115     0.36000
C724        C  0.92157848  0.59904617  0.14965924    -0.06200
C725        C  0.92517640  0.63943151  0.14739722    -0.33100
C726        C  0.89921576  0.66481630  0.16756786     0.35900
H727        H  0.83684894  0.59795501  0.19796673     0.16300
O728        O  0.88126483  0.54570911  0.16405957    -0.60600
H729        H  0.95088747  0.65112976  0.13500118     0.16300
O730        O  0.90664661  0.70352603  0.17051900    -0.60700
H731        H  0.93094852  0.70461361  0.18490627     0.43300
H732        H  0.86097743  0.54155297  0.14494909     0.43200
C733        C  0.83663000  0.30484927  0.22025017    -0.05800
C734        C  0.86642171  0.31108977  0.24577635    -0.33300
C735        C  0.90463465  0.31027194  0.23257240     0.36000
C736        C  0.91325276  0.30445768  0.19290280    -0.06200
C737        C  0.88352361  0.29491422  0.16816281    -0.33100
C738        C  0.84548636  0.29573738  0.18139749     0.35900
H739        H  0.86013635  0.31708138  0.27593829     0.16300
O740        O  0.93326513  0.31599152  0.25848705    -0.60600
H741        H  0.88905843  0.29008613  0.13767115     0.16300
O742        O  0.81695522  0.28993591  0.15549978    -0.60700
H743        H  0.81125310  0.31571959  0.14403878     0.43300
H744        H  0.92938502  0.34324967  0.26771314     0.43200
C745        C  0.30132634  0.23691514  0.86480733    -0.05800
C746        C  0.30720536  0.26668458  0.89171670    -0.33300
C747        C  0.29670850  0.26251610  0.93044477     0.36000
C748        C  0.28023980  0.22804803  0.94259176    -0.06200
C749        C  0.27552341  0.19800690  0.91548569    -0.33100
C750        C  0.28773075  0.20148902  0.87755873     0.35900
H751        H  0.32063527  0.29281251  0.88283026     0.16300
O752        O  0.30427460  0.29132530  0.95658529    -0.60600
H753        H  0.26656293  0.16980287  0.92438544     0.16300
O754        O  0.28795486  0.16932950  0.85367708    -0.60700
H755        H  0.31288704  0.15513290  0.85809894     0.43300
H756        H  0.33240255  0.28880834  0.96074001     0.43200
C757        C  0.39764278  0.85841959  0.15767787    -0.05800
C758        C  0.43642537  0.85918520  0.16843321    -0.33300
C759        C  0.46228867  0.88168341  0.14827927     0.36000
C760        C  0.44932097  0.90465631  0.11750282    -0.06200
C761        C  0.40966101  0.90821762  0.11056066    -0.33100
C762        C  0.38390084  0.88498752  0.13013495     0.35900
H763        H  0.44775659  0.83914670  0.18959734     0.16300
O764        O  0.50061689  0.87861881  0.15697844    -0.60600
H765        H  0.39897440  0.92635902  0.08752580     0.16300
O766        O  0.34589133  0.88634020  0.12012372    -0.60700
H767        H  0.34502589  0.87170883  0.09536640     0.43300
H768        H  0.50635730  0.90397221  0.16899862     0.43200
C769        C  0.35509919  0.98315096  0.87018624    -0.05800
C770        C  0.34313622  0.99396967  0.83362514    -0.33300
C771        C  0.33403734  0.96545725  0.80665781     0.36000
C772        C  0.33426165  0.92604936  0.81748812    -0.06200
C773        C  0.35281229  0.91518197  0.85147855    -0.33100
C774        C  0.36301264  0.94364099  0.87802321     0.35900
H775        H  0.33859552  0.02444253  0.82681574     0.16300
O776        O  0.31956061  0.97696079  0.77211646    -0.60600
H777        H  0.35428959  0.88500801  0.86005744     0.16300
O778        O  0.37596922  0.93253631  0.91341742    -0.60700
H779        H  0.40432132  0.92960705  0.91035198     0.43300
H780        H  0.34233470  0.97852316  0.75482580     0.43200
C781        C  0.29096505  0.05829229  0.97661003    -0.05800
C782        C  0.26129700  0.07996884  0.95898987    -0.33300
C783        C  0.24128904  0.10971407  0.98015995     0.36000
C784        C  0.25584913  0.12061373  0.01634406    -0.06200
C785        C  0.27424976  0.09089182  0.03733235    -0.33100
C786        C  0.29320066  0.05999589  0.01712562     0.35900
H787        H  0.25703330  0.07737794  0.92827660     0.16300
O788        O  0.21487936  0.13340418  0.96185811    -0.60600
H789        H  0.28218534  0.09635035  0.06686510     0.16300
O790        O  0.31873128  0.03593022  0.03609312    -0.60700
H791        H  0.30468282  0.01204349  0.04106419     0.43300
H792        H  0.19066663  0.13168425  0.97691462     0.43200
C793        C  0.42979540  0.04124058  0.96943212    -0.05800
C794        C  0.46067309  0.01827108  0.95370154    -0.33300
C795        C  0.48443712  0.99633426  0.97769006     0.36000
C796        C  0.47816369  0.99886302  0.01791172    -0.06200
C797        C  0.45379530  0.02886620  0.03330917    -0.33100
C798        C  0.42990973  0.05076454  0.00907100     0.35900
H799        H  0.46268622  0.01226878  0.92302147     0.16300
O800        O  0.50891171  0.96814439  0.96127088    -0.60600
H801        H  0.45073577  0.03296574  0.06419276     0.16300
O802        O  0.40448659  0.07870397  0.02457984    -0.60700
H803        H  0.38764568  0.06507640  0.04266491     0.43300
H804        H  0.53284834  0.98148621  0.95515646     0.43200
C805        C  0.68212841  0.08297213  0.18535719    -0.05800
C806        C  0.68684522  0.07186878  0.22348750    -0.33300
C807        C  0.69613095  0.09940696  0.25162043     0.36000
C808        C  0.70108844  0.13843118  0.24131441    -0.06200
C809        C  0.68984267  0.15020483  0.20443390    -0.33100
C810        C  0.68155157  0.12259152  0.17619023     0.35900
H811        H  0.68539530  0.04153479  0.23106376     0.16300
O812        O  0.70305216  0.08751071  0.28840265    -0.60600
H813        H  0.69248350  0.18005848  0.19583865     0.16300
O814        O  0.67558648  0.13427564  0.13911792    -0.60700
H815        H  0.70154769  0.13423259  0.12695512     0.43300
H816        H  0.72353915  0.06659213  0.28597546     0.43200
C817        C  0.72840754  0.80203909  0.11241856    -0.05800
C818        C  0.69374436  0.79173259  0.13043424    -0.33300
C819        C  0.69022658  0.79136145  0.17058600     0.36000
C820        C  0.72162882  0.80113131  0.19313081    -0.06200
C821        C  0.75608962  0.80998800  0.17505186    -0.33100
C822        C  0.76066248  0.80745035  0.13540282     0.35900
H823        H  0.66821053  0.78759143  0.11376867     0.16300
O824        O  0.65509042  0.78503799  0.18724430    -0.60600
H825        H  0.77968980  0.81927459  0.19181709     0.16300
O826        O  0.79591933  0.81442944  0.11938018    -0.60700
H827        H  0.80726613  0.78843495  0.11179696     0.43300
H828        H  0.64306422  0.81128631  0.19267474     0.43200
C829        C  0.64217734  0.85601972  0.02239371    -0.05800
C830        C  0.61489874  0.83542772  0.04339957    -0.33300
C831        C  0.57791689  0.85175156  0.05099427     0.36000
C832        C  0.56753611  0.88872916  0.03667890    -0.06200
C833        C  0.59248548  0.90562646  0.01009999    -0.33100
C834        C  0.62943637  0.88961887  0.00287057     0.35900
H835        H  0.62312957  0.80839365  0.05722197     0.16300
O836        O  0.55277281  0.83180965  0.07322920    -0.60600
H837        H  0.58447702  0.93286171  0.99654115     0.16300
O838        O  0.65391133  0.90928169  0.97965128    -0.60700
H839        H  0.65109321  0.89781452  0.95362370     0.43300
H840        H  0.56085982  0.83595003  0.10012797     0.43200
C841        C  0.75721485  0.91804378  0.05253285    -0.05800
C842        C  0.74508645  0.94918141  0.02940271    -0.33300
C843        C  0.73530327  0.98547207  0.04632908     0.36000
C844        C  0.73704104  0.99012776  0.08663801    -0.06200
C845        C  0.75870774  0.96278245  0.10738114    -0.33100
C846        C  0.76985784  0.92688927  0.09017004     0.35900
H847        H  0.73719236  0.94390555  0.99981955     0.16300
O848        O  0.71734269  0.01359598  0.02461401    -0.60600
H849        H  0.76175118  0.96656725  0.13816550     0.16300
O850        O  0.78643326  0.89876838  0.11281778    -0.60700
H851        H  0.81437503  0.89920377  0.10700227     0.43300
H852        H  0.73792714  0.03106024  0.01703333     0.43200
C853        C  0.58229985  0.15457613  0.93428718    -0.05800
C854        C  0.62160784  0.15106427  0.94351160    -0.33300
C855        C  0.64854520  0.17507580  0.92649058     0.36000
C856        C  0.63664575  0.20262720  0.89911047    -0.06200
C857        C  0.59842783  0.20252840  0.88642705    -0.33100
C858        C  0.57136933  0.17903522  0.90381956     0.35900
H859        H  0.63116532  0.13178864  0.96611642     0.16300
O860        O  0.68600801  0.17274597  0.93822513    -0.60600
H861        H  0.58837176  0.22332203  0.86541377     0.16300
O862        O  0.53381300  0.18213340  0.89245394    -0.60700
H863        H  0.53323070  0.16722370  0.86783963     0.43300
H864        H  0.68603641  0.18714536  0.96318067     0.43200
C865        C  0.55331118  0.06356518  0.03663687    -0.05800
C866        C  0.57713422  0.03187448  0.02431188    -0.33300
C867        C  0.60067504  0.01236273  0.05056533     0.36000
C868        C  0.60143865  0.02619226  0.08902737    -0.06200
C869        C  0.57180740  0.05214607  0.10243536    -0.33100
C870        C  0.54800376  0.07131274  0.07635404     0.35900
H871        H  0.57974669  0.02425371  0.99399431     0.16300
O872        O  0.62529089  0.98243343  0.03773629    -0.60600
H873        H  0.57041088  0.06170518  0.13229402     0.16300
O874        O  0.52328872  0.10086861  0.08965173    -0.60700
H875        H  0.53872855  0.12439083  0.09016152     0.43300
H876        H  0.64329565  0.99404439  0.01928517     0.43200
C877        C  0.45386701  0.15712917  0.99861656    -0.05800
C878        C  0.42933027  0.16179899  0.96756840    -0.33300
C879        C  0.39046920  0.17205204  0.97386128     0.36000
C880        C  0.37578399  0.17858480  0.01173381    -0.06200
C881        C  0.40040435  0.17488225  0.04282284    -0.33100
C882        C  0.43934018  0.16403236  0.03648068     0.35900
H883        H  0.43981706  0.15539138  0.93851515     0.16300
O884        O  0.36640869  0.17298062  0.94296858    -0.60600
H885        H  0.38939569  0.17980997  0.07191478     0.16300
O886        O  0.46307454  0.16028443  0.06740200    -0.60700
H887        H  0.45510925  0.13655741  0.08064214     0.43300
H888        H  0.37082748  0.19792992  0.93017879     0.43200
C889        C  0.36196753  0.42084355  0.65910499    -0.05800
C890        C  0.32277019  0.43026159  0.66472558    -0.33300
C891        C  0.30343066  0.41555867  0.69639267     0.36000
C892        C  0.32304518  0.38949206  0.72083368    -0.06200
C893        C  0.36023965  0.37520272  0.71064228    -0.33100
C894        C  0.37993139  0.39086488  0.68004470     0.35900
H895        H  0.30902023  0.45376802  0.64884067     0.16300
O896        O  0.26753369  0.43090102  0.70610653    -0.60600
H897        H  0.37662814  0.35707743  0.73004681     0.16300
O898        O  0.41870733  0.38228288  0.67580342    -0.60700
H899        H  0.42184005  0.36833574  0.65068665     0.43300
H900        H  0.27175261  0.45691857  0.71745553     0.43200
C901        C  0.37685236  0.61273668  0.29954448    -0.05800
C902        C  0.35625707  0.62764301  0.33224061    -0.33300
C903        C  0.34285577  0.66677638  0.33252459     0.36000
C904        C  0.34569639  0.68812996  0.29834003    -0.06200
C905        C  0.35509182  0.66775806  0.26388211    -0.33100
C906        C  0.36643872  0.62847262  0.26412750     0.35900
H907        H  0.36007389  0.61354010  0.35966058     0.16300
O908        O  0.33264258  0.68479483  0.36692198    -0.60600
H909        H  0.35792479  0.68282113  0.23732732     0.16300
O910        O  0.37861572  0.61054373  0.23029833    -0.60700
H911        H  0.35948986  0.59072488  0.22519371     0.43300
H912        H  0.35718982  0.69036816  0.37941651     0.43200
C913        C  0.61180541  0.32803326  0.43361470    -0.05800
C914        C  0.63921863  0.31203381  0.45864609    -0.33300
C915        C  0.67612807  0.30082773  0.44511087     0.36000
C916        C  0.68577047  0.30446265  0.40581003    -0.06200
C917        C  0.65699483  0.31541496  0.38014400    -0.33100
C918        C  0.61977334  0.32568700  0.39350065     0.35900
H919        H  0.63375075  0.31240596  0.48942857     0.16300
O920        O  0.70373926  0.29130937  0.47136280    -0.60600
H921        H  0.66383004  0.31869897  0.35000227     0.16300
O922        O  0.59284193  0.33750958  0.36728066    -0.60700
H923        H  0.58382390  0.31318437  0.35558836     0.43300
H924        H  0.71091305  0.31633351  0.48309865     0.43200
C925        C  0.65524521  0.59641978  0.33566311    -0.05800
C926        C  0.69359594  0.58736351  0.34472479    -0.33300
C927        C  0.71929185  0.61732845  0.34786973     0.36000
C928        C  0.70674709  0.65536352  0.33793138    -0.06200
C929        C  0.66712317  0.66488291  0.34146596    -0.33100
C930        C  0.64122248  0.63534405  0.33751284     0.35900
H931        H  0.70434054  0.55732449  0.34543271     0.16300
O932        O  0.75763729  0.60794121  0.35160596    -0.60600
H933        H  0.65639484  0.69449862  0.33739239     0.16300
O934        O  0.60331063  0.64486242  0.33049899    -0.60700
H935        H  0.59013830  0.64398722  0.35592491     0.43300
H936        H  0.76295374  0.61301157  0.37909706     0.43200
C937        C  0.56601890  0.49309211  0.35206761    -0.05800
C938        C  0.55723066  0.50684383  0.38943957    -0.33300
C939        C  0.54275312  0.48215189  0.41695829     0.36000
C940        C  0.53732785  0.44279980  0.40703595    -0.06200
C941        C  0.53969785  0.43140286  0.36797538    -0.33100
C942        C  0.55426374  0.45623758  0.34048268     0.35900
H943        H  0.56380430  0.53617089  0.39807468     0.16300
O944        O  0.53760882  0.49589543  0.45406666    -0.60600
H945        H  0.53460944  0.40169297  0.35942075     0.16300
O946        O  0.56099806  0.44254680  0.30360422    -0.60700
H947        H  0.53587046  0.44567471  0.29071298     0.43300
H948        H  0.56383988  0.49808583  0.46435718     0.43200
C949        C  0.57739105  0.55524795  0.22934136    -0.05800
C950        C  0.57356436  0.59556073  0.22393594    -0.33300
C951        C  0.53799996  0.61417655  0.23333572     0.36000
C952        C  0.50684008  0.59140490  0.24312513    -0.06200
C953        C  0.50859965  0.55198813  0.23192276    -0.33100
C954        C  0.54444133  0.53421332  0.22151863     0.35900
H955        H  0.59877318  0.61288932  0.22345767     0.16300
O956        O  0.53547131  0.65367369  0.23887402    -0.60600
H957        H  0.48420755  0.53409438  0.23667615     0.16300
O958        O  0.54762070  0.49453611  0.21721345    -0.60700
H959        H  0.55434953  0.48985221  0.18966370     0.43300
H960        H  0.53202696  0.66420252  0.21272503     0.43200
C961        C  0.64737134  0.44916155  0.72668445    -0.05800
C962        C  0.62930963  0.43277523  0.75850219    -0.33300
C963        C  0.64096125  0.39565324  0.77064751     0.36000
C964        C  0.67162761  0.37491659  0.75145851    -0.06200
C965        C  0.69327035  0.39401536  0.72374909    -0.33100
C966        C  0.68159115  0.43115540  0.71156404     0.35900
H967        H  0.60305445  0.44626374  0.77080019     0.16300
O968        O  0.61945980  0.37846288  0.79835261    -0.60600
H969        H  0.71717817  0.37895643  0.70895688     0.16300
O970        O  0.70191963  0.44842406  0.68278844    -0.60700
H971        H  0.69853715  0.43228353  0.65931468     0.43300
H972        H  0.59684093  0.36876242  0.78480795     0.43200
C973        C  0.53109145  0.53053961  0.71230005    -0.05800
C974        C  0.51003030  0.50204562  0.73049022    -0.33300
C975        C  0.47385754  0.49328397  0.71656609     0.36000
C976        C  0.45819579  0.51507892  0.68596416    -0.06200
C977        C  0.47493978  0.55012592  0.67638475    -0.33100
C978        C  0.51091193  0.55873012  0.69076342     0.35900
H979        H  0.52445226  0.48133573  0.74919838     0.16300
O980        O  0.45648948  0.46101433  0.72997714    -0.60600
H981        H  0.46231272  0.56877616  0.65469761     0.16300
O982        O  0.52992264  0.58930608  0.67589262    -0.60700
H983        H  0.51567666  0.61302374  0.68594925     0.43300
H984        H  0.47041721  0.43844583  0.71712572     0.43200
C985        C  0.58765255  0.46285330  0.60403280    -0.05800
C986        C  0.61388042  0.43375909  0.58932999    -0.33300
C987        C  0.60548222  0.41151920  0.55677115     0.36000
C988        C  0.57053109  0.41858333  0.53758145    -0.06200
C989        C  0.54436515  0.44764321  0.55213867    -0.33100
C990        C  0.55250335  0.46966570  0.58478431     0.35900
H991        H  0.64094985  0.42763317  0.60343757     0.16300
O992        O  0.63246952  0.38416309  0.54318993    -0.60600
H993        H  0.51738975  0.45371839  0.53782118     0.16300
O994        O  0.52509692  0.49675685  0.59811880    -0.60700
H995        H  0.53013907  0.52083863  0.58397420     0.43300
H996        H  0.62699880  0.36007557  0.55715124     0.43200
C997        C  0.41556930  0.71002876  0.57234855    -0.05800
C998        C  0.41391921  0.69562132  0.60993409    -0.33300
C999        C  0.38559885  0.70968558  0.63628758     0.36000
C1000       C  0.35946214  0.73993412  0.62572328    -0.06200
C1001       C  0.36556045  0.75861439  0.59042435    -0.33100
C1002       C  0.39311766  0.74356130  0.56353534     0.35900
H1003       H  0.43128681  0.66989696  0.61721027     0.16300
O1004       O  0.38117601  0.69083579  0.67048484    -0.60600
H1005       H  0.34589485  0.78191079  0.58158614     0.16300
O1006       O  0.39341548  0.75796173  0.52697298    -0.60700
H1007       H  0.41633262  0.77399930  0.52557998     0.43300
H1008       H  0.36870102  0.66634808  0.66386045     0.43200
C1009       C  0.48185887  0.67389822  0.44755287    -0.05800
C1010       C  0.46081744  0.69754341  0.42230477    -0.33300
C1011       C  0.46212071  0.68900466  0.38289305     0.36000
C1012       C  0.48485427  0.65671722  0.36879548    -0.06200
C1013       C  0.51165702  0.63846782  0.39288941    -0.33100
C1014       C  0.51029383  0.64702878  0.43243829     0.35900
H1015       H  0.43888035  0.71833357  0.43343921     0.16300
O1016       O  0.43660349  0.70829625  0.35941642    -0.60600
H1017       H  0.52965714  0.61393675  0.38226921     0.16300
O1018       O  0.53303243  0.62533675  0.45673963    -0.60700
H1019       H  0.52199053  0.59928659  0.45732179     0.43300
H1020       H  0.45264731  0.72415337  0.34249455     0.43200
C1021       C  0.41205352  0.57997516  0.52016443    -0.05800
C1022       C  0.37566576  0.57631413  0.53743726    -0.33300
C1023       C  0.36809787  0.54326637  0.55837086     0.36000
C1024       C  0.39714043  0.51394656  0.56142907    -0.06200
C1025       C  0.42998124  0.51416201  0.53761577    -0.33100
C1026       C  0.43770001  0.54728487  0.51680507     0.35900
H1027       H  0.35519743  0.60102866  0.53912083     0.16300
O1028       O  0.33526602  0.54281762  0.58082970    -0.60600
H1029       H  0.45238356  0.49142482  0.53996021     0.16300
O1030       O  0.47309414  0.54975921  0.49935420    -0.60700
H1031       H  0.47000244  0.53914333  0.47299071     0.43300
H1032       H  0.34032893  0.55903794  0.60385352     0.43200
C1033       C  0.10378582  0.23859885  0.66864853    -0.05800
C1034       C  0.14358607  0.23179690  0.66300264    -0.33300
C1035       C  0.16840783  0.24887768  0.68892872     0.36000
C1036       C  0.15228687  0.27399232  0.71785141    -0.06200
C1037       C  0.11542914  0.29103672  0.71203282    -0.33100
C1038       C  0.09129536  0.27433042  0.68543137     0.35900
H1039       H  0.15433603  0.20657545  0.64637518     0.16300
O1040       O  0.20573003  0.23466985  0.69079394    -0.60600
H1041       H  0.10262239  0.31160400  0.73262062     0.16300
O1042       O  0.05305755  0.28613857  0.68462876    -0.60700
H1043       H  0.04223250  0.28116813  0.71060266     0.43300
H1044       H  0.22121647  0.25508489  0.67932945     0.43200
C1045       C  0.86880250  0.13183171  0.76642359    -0.05800
C1046       C  0.85505746  0.14708173  0.73154656    -0.33300
C1047       C  0.83603640  0.18369543  0.73093626     0.36000
C1048       C  0.82993837  0.20487818  0.76552269    -0.06200
C1049       C  0.83720937  0.18638186  0.80036458    -0.33100
C1050       C  0.85579454  0.14970086  0.80113753     0.35900
H1051       H  0.86360678  0.13351473  0.70420946     0.16300
O1052       O  0.82904326  0.20071184  0.69616932    -0.60600
H1053       H  0.83101352  0.20128140  0.82707336     0.16300
O1054       O  0.86560656  0.13413542  0.83589478    -0.60700
H1055       H  0.84611798  0.11467603  0.84109716     0.43300
H1056       H  0.80236106  0.19428244  0.68991208     0.43200
C1057       C  0.99814337  0.12866915  0.80807845    -0.05800
C1058       C  0.03508134  0.11092253  0.81055347    -0.33300
C1059       C  0.06679670  0.13153869  0.79858921     0.36000
C1060       C  0.05988669  0.16797178  0.78144504    -0.06200
C1061       C  0.02631152  0.18950874  0.79265802    -0.33100
C1062       C  0.99495198  0.16971825  0.80692413     0.35900
H1063       H  0.03864393  0.07980256  0.81449724     0.16300
O1064       O  0.10255041  0.11301796  0.79561774    -0.60600
H1065       H  0.02138353  0.21898460  0.78271226     0.16300
O1066       O  0.95961040  0.18902152  0.80949041    -0.60700
H1067       H  0.95482927  0.19366621  0.83740663     0.43300
H1068       H  0.10192344  0.09561999  0.77272526     0.43200
C1069       C  0.11792835  0.90481275  0.60463205    -0.05800
C1070       C  0.11672482  0.90549451  0.64528011    -0.33300
C1071       C  0.14689877  0.88824702  0.66629531     0.36000
C1072       C  0.17755418  0.86827560  0.64670265    -0.06200
C1073       C  0.17444042  0.86105503  0.60702640    -0.33100
C1074       C  0.14564409  0.87982757  0.58575623     0.35900
H1075       H  0.09467120  0.92291895  0.66081943     0.16300
O1076       O  0.14749042  0.89313885  0.70552133    -0.60600
H1077       H  0.19740503  0.84555278  0.59124612     0.16300
O1078       O  0.14744641  0.87652384  0.54636781    -0.60700
H1079       H  0.16786809  0.89392993  0.53812300     0.43300
H1080       H  0.14889180  0.92151126  0.71017742     0.43200
C1081       C  0.06052145  0.03561095  0.61033088    -0.05800
C1082       C  0.06157888  0.03314741  0.65049881    -0.33300
C1083       C  0.06483835  0.06630460  0.67340847     0.36000
C1084       C  0.06629168  0.10319328  0.65627771    -0.06200
C1085       C  0.06240204  0.10597534  0.61636491    -0.33100
C1086       C  0.05893944  0.07275833  0.59345171     0.35900
H1087       H  0.06201362  0.00515840  0.66436944     0.16300
O1088       O  0.06780754  0.06188308  0.71239034    -0.60600
H1089       H  0.06233750  0.13401694  0.60263137     0.16300
O1090       O  0.05604878  0.07710130  0.55446833    -0.60700
H1091       H  0.02835301  0.08323297  0.55011707     0.43300
H1092       H  0.09486683  0.05274129  0.71644588     0.43200
C1093       C  0.13780402  0.91598611  0.29124071    -0.05800
C1094       C  0.11768598  0.88452983  0.27716303    -0.33300
C1095       C  0.13511910  0.84732061  0.27469014     0.36000
C1096       C  0.17381003  0.84109559  0.28511129    -0.06200
C1097       C  0.19508512  0.87320631  0.29560776    -0.33100
C1098       C  0.17734549  0.91050869  0.29866198     0.35900
H1099       H  0.08718976  0.88779462  0.27157726     0.16300
O1100       O  0.11300415  0.81693103  0.26492385    -0.60600
H1101       H  0.22507519  0.86915191  0.30311991     0.16300
O1102       O  0.19826296  0.94089209  0.31119577    -0.60700
H1103       H  0.20712406  0.95359776  0.28742590     0.43300
H1104       H  0.10216966  0.80779860  0.28958910     0.43200
C1105       C  0.10079931  0.98953994  0.40543201    -0.05800
C1106       C  0.06968771  0.00767550  0.42612231    -0.33300
C1107       C  0.06414985  0.00118076  0.46521521     0.36000
C1108       C  0.09054564  0.97699709  0.48507774    -0.06200
C1109       C  0.12328623  0.96111021  0.46539060    -0.33100
C1110       C  0.12882402  0.96755234  0.42596699     0.35900
H1111       H  0.04780204  0.02502352  0.41155241     0.16300
O1112       O  0.03116652  0.01628901  0.48310113    -0.60600
H1113       H  0.14462975  0.94362523  0.48055745     0.16300
O1114       O  0.16068513  0.95054147  0.40767417    -0.60700
H1115       H  0.18068880  0.97001867  0.40953792     0.43300
H1116       H  0.03465906  0.04464590  0.48559246     0.43200
C1117       C  0.91483680  0.15354240  0.48041455    -0.05800
C1118       C  0.91902719  0.13987904  0.44209869    -0.33300
C1119       C  0.89277767  0.15267787  0.41433492     0.36000
C1120       C  0.86485179  0.18217875  0.42415434    -0.06200
C1121       C  0.86873282  0.20280289  0.45907055    -0.33100
C1122       C  0.89326979  0.18837666  0.48752975     0.35900
H1123       H  0.93663188  0.11364808  0.43585257     0.16300
O1124       O  0.89156224  0.13298864  0.37976255    -0.60600
H1125       H  0.84840411  0.22605381  0.46710613     0.16300
O1126       O  0.88944437  0.20344484  0.52421207    -0.60700
H1127       H  0.91007118  0.22221757  0.52640103     0.43300
H1128       H  0.88006216  0.10786726  0.38562960     0.43200
C1129       C  0.96640618  0.08319666  0.68208824    -0.05800
C1130       C  0.97025085  0.11824889  0.66247766    -0.33300
C1131       C  0.96227758  0.12061942  0.62318424     0.36000
C1132       C  0.94953559  0.08765986  0.60341308    -0.06200
C1133       C  0.95135144  0.05154187  0.62207154    -0.33100
C1134       C  0.95961992  0.04925953  0.66116149     0.35900
H1135       H  0.97554655  0.14470990  0.67846235     0.16300
O1136       O  0.96306601  0.15606606  0.60580597    -0.60600
H1137       H  0.94342549  0.02530590  0.60718283     0.16300
O1138       O  0.95671755  0.01456039  0.67958378    -0.60700
H1139       H  0.98203878  0.00064008  0.67526625     0.43300
H1140       H  0.98828427  0.15585036  0.59204329     0.43200
C1141       C  0.90413890  0.83785801  0.40647430    -0.05800
C1142       C  0.86598457  0.82680133  0.40838021    -0.33300
C1143       C  0.85234137  0.80435443  0.37832949     0.36000
C1144       C  0.87841307  0.78975272  0.34969251    -0.06200
C1145       C  0.91799323  0.78925628  0.35715824    -0.33100
C1146       C  0.93120123  0.81383603  0.38583163     0.35900
H1147       H  0.84500990  0.84322821  0.42629192     0.16300
O1148       O  0.81353033  0.80437730  0.37284764    -0.60600
H1149       H  0.93875867  0.77710060  0.33618682     0.16300
O1150       O  0.96953673  0.82128391  0.38665938    -0.60700
H1151       H  0.98083195  0.80218851  0.40484643     0.43300
H1152       H  0.80320748  0.78911207  0.39439817     0.43200
C1153       C  0.86692107  0.96793014  0.45493710    -0.05800
C1154       C  0.87710464  0.96090342  0.49318134    -0.33300
C1155       C  0.87643159  0.99155856  0.52002549     0.36000
C1156       C  0.86591837  0.02940717  0.50798513    -0.06200
C1157       C  0.84699121  0.03390769  0.47272044    -0.33100
C1158       C  0.84848133  0.00357218  0.44564381     0.35900
H1159       H  0.89005588  0.93300257  0.50113706     0.16300
O1160       O  0.89136233  0.98514107  0.55573980    -0.60600
H1161       H  0.83614819  0.06233485  0.46379087     0.16300
O1162       O  0.83480254  0.00987444  0.40932883    -0.60700
H1163       H  0.85343299  0.02666592  0.39666735     0.43300
H1164       H  0.87087190  0.97264990  0.57044185     0.43200
C1165       C  0.94343687  0.95212365  0.33631780    -0.05800
C1166       C  0.95139099  0.99170535  0.33980143    -0.33300
C1167       C  0.98551386  0.00525596  0.32430602     0.36000
C1168       C  0.01200295  0.97893149  0.30538848    -0.06200
C1169       C  0.99920858  0.94252714  0.29362284    -0.33100
C1170       C  0.96510227  0.92880296  0.30926733     0.35900
H1171       H  0.93396001  0.01107885  0.35856815     0.16300
O1172       O  0.99557754  0.04229153  0.33339721    -0.60600
H1173       H  0.01809041  0.92235143  0.27717814     0.16300
O1174       O  0.95500317  0.89162338  0.30050186    -0.60700
H1175       H  0.97420051  0.87413948  0.31317458     0.43300
H1176       H  0.98750996  0.05819447  0.31105654     0.43200
loop_ 
_geom_bond_atom_site_label_1 
_geom_bond_atom_site_label_2 
_geom_bond_distance 
_geom_bond_site_symmetry_2 
_ccdc_geom_bond_type 
C1            N2   1.360       .  A
C1            N6   1.353       .  A
C1         C1141   1.465       .  S
N2            C3   1.357       .  A
C3            N4   1.357       .  A
C3         C1165   1.486       .  S
N4            C5   1.359       .  A
C5            N6   1.352       .  A
C5         C1153   1.464       .  S
C7            N8   1.362       .  A
C7           N12   1.348       .  A
C7         C1117   1.470       .  S
N8            C9   1.370       .  A
C9           N10   1.363       .  A
C9         C1132   1.486       .  S
N10          C11   1.353       .  A
C11          N12   1.345       .  A
C11        C1156   1.478       .  S
C13          N14   1.358       .  A
C13          N18   1.361       .  A
C13        C1093   1.474       .  S
N14          C15   1.355       .  A
C15          N16   1.355       .  A
C15        C1105   1.487       .  S
N16          C17   1.354       .  A
C17          N18   1.357       .  A
C17        C1168   1.481       .  S
C19          N20   1.365       .  A
C19          N24   1.356       .  A
C19        C1069   1.489       .  S
N20          C21   1.362       .  A
C21          N22   1.351   1_565  A
C21        C1108   1.476       .  S
N22          C23   1.348   1_545  A
C23          N24   1.354       .  A
C23        C1081   1.477   1_565  S
C25          N26   1.359       .  A
C25          N30   1.353       .  A
C25        C1045   1.477       .  S
N26          C27   1.356       .  A
C27          N28   1.363       .  A
C27        C1057   1.471       .  S
N28          C29   1.355       .  A
C29          N30   1.351       .  A
C29        C1129   1.464       .  S
C31          N32   1.367       .  A
C31          N36   1.357       .  A
C31        C1033   1.467       .  S
N32          C33   1.353       .  A
C33          N34   1.352       .  A
C33        C1060   1.473       .  S
N34          C35   1.350       .  A
C35          N36   1.358       .  A
C35        C1084   1.475       .  S
C37          N38   1.351       .  A
C37          N42   1.365       .  A
C37         C997   1.475       .  S
N38          C39   1.347       .  A
C39          N40   1.347       .  A
C39        C1021   1.463       .  S
N40          C41   1.358       .  A
C41          N42   1.369       .  A
C41        C1009   1.467       .  S
C43          N44   1.358       .  A
C43          N48   1.362       .  A
C43         C961   1.471       .  S
N44          C45   1.353       .  A
C45          N46   1.349       .  A
C45         C985   1.487       .  S
N46          C47   1.355       .  A
C47          N48   1.358       .  A
C47         C973   1.467       .  S
C49          N50   1.359       .  A
C49          N54   1.351       .  A
C49         C925   1.460       .  S
N50          C51   1.361       .  A
C51          N52   1.358       .  A
C51         C949   1.487       .  S
N52          C53   1.351       .  A
C53          N54   1.356       .  A
C53         C937   1.466       .  S
C55          N56   1.362       .  A
C55          N60   1.353       .  A
C55         C913   1.486       .  S
N56          C57   1.360       .  A
C57          N58   1.354       .  A
C57         C988   1.480       .  S
N58          C59   1.351       .  A
C59          N60   1.353       .  A
C59         C940   1.478       .  S
C61          N62   1.362       .  A
C61          N66   1.353       .  A
C61         C901   1.480       .  S
N62          C63   1.360       .  A
C63          N64   1.364       .  A
C63         C952   1.468       .  S
N64          C65   1.352       .  A
C65          N66   1.348       .  A
C65        C1012   1.467       .  S
C67          N68   1.357       .  A
C67          N72   1.353       .  A
C67         C889   1.447       .  S
N68          C69   1.349       .  A
C69          N70   1.353       .  A
C69         C976   1.481       .  S
N70          C71   1.358       .  A
C71          N72   1.352       .  A
C71        C1024   1.448       .  S
C73          N74   1.366       .  A
C73          N78   1.361       .  A
C73         C853   1.495       .  S
N74          C75   1.364       .  A
C75          N76   1.349   1_556  A
C75         C877   1.469       .  S
N76          C77   1.347       .  A
C77          N78   1.360   1_554  A
C77         C865   1.463       .  S
C79          N80   1.356       .  A
C79          N84   1.354       .  A
C79         C817   1.478       .  S
N80          C81   1.350       .  A
C81          N82   1.359       .  A
C81         C841   1.488       .  S
N82          C83   1.360       .  A
C83          N84   1.355       .  A
C83         C829   1.484       .  S
C85          N86   1.366       .  A
C85          N90   1.355       .  A
C85         C805   1.464       .  S
N86          C87   1.360       .  A
C87          N88   1.351       .  A
C87         C844   1.471   1_545  S
N88          C89   1.348       .  A
C89          N90   1.356       .  A
C89         C868   1.476       .  S
C91          N92   1.364       .  A
C91          N96   1.353       .  A
C91         C769   1.462   1_545  S
N92          C93   1.359       .  A
C93          N94   1.354       .  A
C93         C781   1.474       .  S
N94          C95   1.352       .  A
C95          N96   1.356       .  A
C95         C793   1.478       .  S
C97          N98   1.363       .  A
C97         N102   1.360       .  A
C97         C760   1.481       .  S
N98          C99   1.360       .  A
C99         N100   1.350       .  A
C99         C832   1.481       .  S
N100        C101   1.348       .  A
C101        N102   1.360       .  A
C101        C796   1.469       .  S
C103        N104   1.348       .  A
C103        N108   1.359       .  A
C103        C748   1.465       .  S
N104        C105   1.346   1_556  A
C105        N106   1.356       .  A
C105        C880   1.467       .  S
N106        C107   1.365       .  A
C107        N108   1.358   1_554  A
C107        C784   1.488       .  S
In109       O111   2.283       .  S
In109       O112   2.271       .  S
In109       O120   2.345       .  S
In109       O114   2.292       .  S
In109       O116   2.240       .  S
In109       O117   2.260       .  S
In109       O118   2.269       .  S
In109       O121   2.306       .  S
C110        C916   1.469       .  S
C110        O116   1.249       .  A
C110        O118   1.256       .  A
O111        C119   1.273       .  A
O112        C119   1.255       .  A
C113        C145   1.525       .  S
C113        O120   1.265       .  A
C113        O114   1.259       .  A
C115        C181   1.476       .  S
C115        O117   1.253       .  A
C115        O121   1.266       .  A
C119        C126   1.487       .  S
C122        N123   1.387       .  A
C122        N127   1.383       .  A
C122        C483   1.519       .  S
N123        C124   1.373       .  A
C124        N125   1.341       .  A
C124        C138   1.496       .  S
N125        C126   1.341       .  A
C126        N127   1.371       .  A
In128       O130   2.300       .  S
In128       O131   2.309       .  S
In128       O139   2.391       .  S
In128       O133   2.238       .  S
In128       O135   2.278       .  S
In128       O136   2.309       .  S
In128       O137   2.243       .  S
In128       O140   2.301       .  S
C129       C1120   1.484       .  S
C129        O135   1.257       .  A
C129        O137   1.254       .  A
O130        C138   1.264       .  A
O131        C138   1.255       .  A
C132        C158   1.525       .  S
C132        O139   1.271       .  A
C132        O133   1.257       .  A
C134        C177   1.495       .  S
C134        O136   1.255       .  A
C134        O140   1.265       .  A
In141       O143   2.307       .  S
In141       O144   2.281       .  S
In141       O152   2.333       .  S
In141       O146   2.316       .  S
In141       O148   2.253       .  S
In141       O149   2.279       .  S
In141       O150   2.262       .  S
In141       O153   2.294       .  S
C142        C808   1.482       .  S
C142        O148   1.250       .  A
C142        O150   1.254       .  A
O143        C151   1.270       .  A
O144        C151   1.255       .  A
C145        O152   1.261       .  A
C145        O146   1.260       .  A
C147        C175   1.489       .  S
C147        O149   1.266       .  A
C147        O153   1.254       .  A
C151        C171   1.494       .  S
In154       O156   2.265       .  S
In154       O157   2.282       .  S
In154       O165   2.393       .  S
In154       O159   2.245       .  S
In154       O161   2.223       .  S
In154       O162   2.291       .  S
In154       O163   2.275       .  S
In154       O166   2.277       .  S
C155        C733   1.468       .  S
C155        O161   1.250       .  A
C155        O163   1.258       .  A
O156        C164   1.264       .  A
O157        C164   1.254       .  A
C158        O165   1.271       .  A
C158        O159   1.254       .  A
C160        C183   1.482       .  S
C160        O162   1.252       .  A
C160        O166   1.268       .  A
C164        C169   1.479       .  S
C167        N168   1.377       .  A
C167        N172   1.385       .  A
C167        C477   1.512       .  S
N168        C169   1.368       .  A
C169        N170   1.346       .  A
N170        C171   1.343       .  A
C171        N172   1.371       .  A
C173        N174   1.383       .  A
C173        N178   1.387       .  A
C173        C211   1.528   1_545  S
N174        C175   1.372       .  A
C175        N176   1.343       .  A
N176        C177   1.343       .  A
C177        N178   1.377       .  A
C179        N180   1.381       .  A
C179        N184   1.383       .  A
C179        C230   1.514       .  S
N180        C181   1.368       .  A
C181        N182   1.340       .  A
N182        C183   1.338       .  A
C183        N184   1.375       .  A
In185       O187   2.276       .  S
In185       O188   2.267       .  S
In185       O196   2.416       .  S
In185       O190   2.178       .  S
In185       O192   2.264       .  S
In185       O193   2.289       .  S
In185       O194   2.243       .  S
In185       O197   2.288       .  S
C186       C1144   1.465       .  S
C186        O192   1.255       .  A
C186        O194   1.249       .  A
O187        C195   1.265       .  A
O188        C195   1.255       .  A
C189        C246   1.521       .  S
C189        O196   1.270       .  A
C189        O190   1.247       .  A
C191        C215   1.488       .  S
C191        O193   1.253       .  A
C191        O197   1.268       .  A
C195        C238   1.470       .  S
In198       O200   2.283       .  S
In198       O201   2.302       .  S
In198       O209   2.422       .  S
In198       O203   2.195       .  S
In198       O205   2.257       .  S
In198       O206   2.274       .  S
In198       O207   2.252       .  S
In198       O210   2.313       .  S
C199        C820   1.467       .  S
C199        O205   1.250       .  A
C199        O207   1.256       .  A
O200        C208   1.268       .  A
O201        C208   1.258       .  A
C202        C221   1.527       .  S
C202        O209   1.272       .  A
C202        O203   1.248       .  A
C204        C213   1.490       .  S
C204        O206   1.254       .  A
C204        O210   1.268       .  A
C208        C257   1.495       .  S
C211        N212   1.386       .  A
C211        N216   1.385       .  A
N212        C213   1.376       .  A
C213        N214   1.344       .  A
N214        C215   1.343       .  A
C215        N216   1.373       .  A
In217       O219   2.305       .  S
In217       O220   2.311       .  S
In217       O228   2.404       .  S
In217       O222   2.215       .  S
In217       O224   2.257       .  S
In217       O225   2.280       .  S
In217       O226   2.232       .  S
In217       O229   2.298       .  S
C218        C721   1.473       .  S
C218        O224   1.257       .  A
C218        O226   1.254       .  A
O219        C227   1.270       .  A
O220        C227   1.253       .  A
C221        O228   1.273       .  A
C221        O222   1.255       .  A
C223        C232   1.484       .  S
C223        O225   1.253       .  A
C223        O229   1.264       .  A
C227        C240   1.501       .  S
C230        N231   1.381       .  A
C230        N235   1.385       .  A
N231        C232   1.366       .  A
C232        N233   1.341       .  A
N233        C234   1.340       .  A
C234        N235   1.374       .  A
C234        C248   1.491       .  S
C236        N237   1.377       .  A
C236        N241   1.392       .  A
C236        C306   1.509       .  S
N237        C238   1.363   1_455  A
C238        N239   1.339       .  A
N239        C240   1.335       .  A
C240        N241   1.375   1_655  A
In242       O244   2.309       .  S
In242       O245   2.291       .  S
In242       O253   2.397       .  S
In242       O247   2.208       .  S
In242       O249   2.254       .  S
In242       O250   2.296       .  S
In242       O251   2.233       .  S
In242       O254   2.281       .  S
C243        C928   1.476       .  S
C243        O249   1.256       .  A
C243        O251   1.257       .  A
O244        C252   1.266       .  A
O245        C252   1.252       .  A
C246        O253   1.273       .  A
C246        O247   1.256       .  A
C248        O250   1.254       .  A
C248        O254   1.270       .  A
C252        C259   1.493       .  S
C255        N256   1.386       .  A
C255        N260   1.387       .  A
C255        C331   1.528       .  S
N256        C257   1.372       .  A
C257        N258   1.341       .  A
N258        C259   1.342       .  A
C259        N260   1.375       .  A
In261       O263   2.307       .  S
In261       O264   2.323       .  S
In261       O272   2.387       .  S
In261       O266   2.257       .  S
In261       O268   2.262       .  S
In261       O269   2.308       .  S
In261       O270   2.246       .  S
In261       O273   2.291       .  S
C262        C757   1.480       .  S
C262        O268   1.256       .  A
C262        O270   1.253       .  A
O263        C271   1.263       .  A
O264        C271   1.256       .  A
C265        C297   1.532       .  S
C265        O272   1.270       .  A
C265        O266   1.257       .  A
C267        C276   1.496       .  S
C267        O269   1.254       .  A
C267        O273   1.265       .  A
C271        C333   1.497       .  S
C274        N275   1.386       .  A
C274        N279   1.378       .  A
C274        C363   1.512   1_554  S
N275        C276   1.372       .  A
C276        N277   1.343       .  A
N277        C278   1.348       .  A
C278        N279   1.367       .  A
C278        C286   1.484       .  S
In280       O282   2.373       .  S
In280       O283   2.162       .  S
In280       O291   2.341       .  S
In280       O285   2.301       .  S
In280       O287   2.239       .  S
In280       O288   2.285       .  S
In280       O289   2.283       .  S
In280       O292   2.260       .  S
C281        C712   1.475       .  S
C281        O287   1.251       .  A
C281        O289   1.261       .  A
O282        C290   1.276       .  A
O283        C290   1.258       .  A
C284        C316   1.530       .  S
C284        O291   1.270       .  A
C284        O285   1.263       .  A
C286        O288   1.259       .  A
C286        O292   1.262       .  A
C290        C308   1.501       .  S
In293       O295   2.275       .  S
In293       O296   2.279       .  S
In293       O304   2.390       .  S
In293       O298   2.279       .  S
In293       O300   2.249       .  S
In293       O301   2.294       .  S
In293       O302   2.242       .  S
In293       O305   2.273       .  S
C294       C1096   1.476       .  S
C294        O300   1.258       .  A
C294        O302   1.257       .  A
O295        C303   1.265       .  A
O296        C303   1.253       .  A
C297        O304   1.271       .  A
C297        O298   1.255       .  A
C299        C329   1.482       .  S
C299        O301   1.250       .  A
C299        O305   1.266       .  A
C303        C310   1.471       .  S
C306        N307   1.388       .  A
C306        N311   1.374       .  A
N307        C308   1.374       .  A
C308        N309   1.343       .  A
N309        C310   1.338       .  A
C310        N311   1.365       .  A
In312       O314   2.296       .  S
In312       O315   2.271       .  S
In312       O323   2.352       .  S
In312       O317   2.305       .  S
In312       O319   2.272       .  S
In312       O320   2.274       .  S
In312       O321   2.245       .  S
In312       O324   2.282       .  S
C313        C904   1.477       .  S
C313        O319   1.252       .  A
C313        O321   1.254       .  A
O314        C322   1.272       .  A
O315        C322   1.254       .  A
C316        O323   1.269       .  A
C316        O317   1.260       .  A
C318        C327   1.472       .  S
C318        O320   1.253       .  A
C318        O324   1.264       .  A
C322        C335   1.482       .  S
C325        N326   1.380       .  A
C325        N330   1.386       .  A
C325        C382   1.514       .  S
N326        C327   1.368       .  A
C327        N328   1.339       .  A
N328        C329   1.336       .  A
C329        N330   1.372       .  A
C331        N332   1.391       .  A
C331        N336   1.386       .  A
N332        C333   1.378       .  A
C333        N334   1.336       .  A
N334        C335   1.333       .  A
C335        N336   1.371       .  A
In337       O339   2.274       .  S
In337       O340   2.301       .  S
In337       O348   2.391       .  S
In337       O342   2.248       .  S
In337       O344   2.244       .  S
In337       O345   2.304       .  S
In337       O346   2.239       .  S
In337       O349   2.294       .  S
C338        C772   1.475       .  S
C338        O344   1.258       .  A
C338        O346   1.256       .  A
O339        C347   1.266       .  A
O340        C347   1.253       .  A
C341        C398   1.529       .  S
C341        O348   1.271       .  A
C341        O342   1.255       .  A
C343        C365   1.491       .  S
C343        O345   1.252       .  A
C343        O349   1.266       .  A
C347        C390   1.487       .  S
In350       O352   2.262       .  S
In350       O353   2.266       .  S
In350       O361   2.342       .  S
In350       O355   2.312       .  S
In350       O357   2.260       .  S
In350       O358   2.265       .  S
In350       O359   2.263       .  S
In350       O362   2.268       .  S
C351        C700   1.475       .  S
C351        O357   1.252       .  A
C351        O359   1.250       .  A
O352        C360   1.254       .  A
O353        C360   1.272       .  A
C354        C373   1.528       .  S
C354        O361   1.267       .  A
C354        O355   1.261       .  A
C356        C367   1.468       .  S
C356        O358   1.252       .  A
C356        O362   1.265       .  A
C360        C409   1.477       .  S
C363        N364   1.389       .  A
C363        N368   1.376       .  A
N364        C365   1.376       .  A
C365        N366   1.339       .  A
N366        C367   1.340       .  A
C367        N368   1.364       .  A
In369       O371   2.326       .  S
In369       O372   2.286       .  S
In369       O380   2.331       .  S
In369       O374   2.344       .  S
In369       O376   2.241       .  S
In369       O377   2.286       .  S
In369       O378   2.284       .  S
In369       O381   2.319       .  S
C370       C1072   1.476       .  S
C370        O376   1.249       .  A
C370        O378   1.254       .  A
O371        C379   1.271       .  A
O372        C379   1.256       .  A
C373        O380   1.261       .  A
C373        O374   1.259       .  A
C375        C384   1.495       .  S
C375        O377   1.255       .  A
C375        O381   1.270       .  A
C379        C392   1.498       .  S
C382        N383   1.388       .  A
C382        N387   1.382       .  A
N383        C384   1.373       .  A
C384        N385   1.338       .  A
N385        C386   1.340       .  A
C386        N387   1.368       .  A
C386        C400   1.485       .  S
C388        N389   1.384       .  A
C388        N393   1.392       .  A
C388        C502   1.538       .  S
N389        C390   1.374   1_545  A
C390        N391   1.340       .  A
N391        C392   1.340       .  A
C392        N393   1.381   1_565  A
In394       O396   2.329       .  S
In394       O397   2.279       .  S
In394       O405   2.385       .  S
In394       O399   2.266       .  S
In394       O401   2.265       .  S
In394       O402   2.302       .  S
In394       O403   2.246       .  S
In394       O406   2.276       .  S
C395       C1000   1.484       .  S
C395        O401   1.261       .  A
C395        O403   1.254       .  A
O396        C404   1.263       .  A
O397        C404   1.253       .  A
C398        O405   1.268       .  A
C398        O399   1.258       .  A
C400        O402   1.254       .  A
C400        O406   1.264       .  A
C404        C411   1.488       .  S
C407        N408   1.380       .  A
C407        N412   1.388       .  A
C407        C559   1.528       .  S
N408        C409   1.371       .  A
C409        N410   1.339       .  A
N410        C411   1.341       .  A
C411        N412   1.378       .  A
In413       O415   2.270       .  S
In413       O416   2.285       .  S
In413       O424   2.406       .  S
In413       O418   2.268       .  S
In413       O420   2.277       .  S
In413       O421   2.291       .  S
In413       O422   2.249       .  S
In413       O425   2.338       .  S
C414        C685   1.477       .  S
C414        O420   1.253       .  A
C414        O422   1.248       .  A
O415        C423   1.263       .  A
O416        C423   1.257       .  A
C417        C449   1.534       .  S
C417        O424   1.268       .  A
C417        O418   1.259       .  A
C419        C443   1.490       .  S
C419        O421   1.248       .  A
C419        O425   1.266       .  A
C423        C479   1.474       .  S
In426       O428   2.288       .  S
In426       O429   2.281       .  S
In426       O437   2.334       .  S
In426       O431   2.356       .  S
In426       O433   2.267       .  S
In426       O434   2.277       .  S
In426       O435   2.255       .  S
In426       O438   2.295       .  S
C427       C1048   1.470       .  S
C427        O433   1.254       .  A
C427        O435   1.249       .  A
O428        C436   1.272       .  A
O429        C436   1.255       .  A
C430        C462   1.551       .  S
C430        O437   1.260       .  A
C430        O431   1.261       .  A
C432        C441   1.477       .  S
C432        O434   1.252       .  A
C432        O438   1.268       .  A
C436        C485   1.488       .  S
C439        N440   1.384       .  A
C439        N444   1.390       .  A
C439        C534   1.529   1_655  S
N440        C441   1.375       .  A
C441        N442   1.339       .  A
N442        C443   1.335       .  A
C443        N444   1.375       .  A
In445       O447   2.290       .  S
In445       O448   2.282       .  S
In445       O456   2.402       .  S
In445       O450   2.264       .  S
In445       O452   2.260       .  S
In445       O453   2.288       .  S
In445       O454   2.252       .  S
In445       O457   2.280       .  S
C446        C964   1.477       .  S
C446        O452   1.253       .  A
C446        O454   1.255       .  A
O447        C455   1.264       .  A
O448        C455   1.252       .  A
C449        O456   1.271       .  A
C449        O450   1.257       .  A
C451        C473   1.486       .  S
C451        O453   1.254       .  A
C451        O457   1.270       .  A
C455        C487   1.481       .  S
In458       O460   2.275       .  S
In458       O461   2.325       .  S
In458       O469   2.287       .  S
In458       O463   2.392       .  S
In458       O465   2.286       .  S
In458       O466   2.307       .  S
In458       O467   2.253       .  S
In458       O470   2.303       .  S
C459        C856   1.489       .  S
C459        O465   1.255       .  A
C459        O467   1.252       .  A
O460        C468   1.264       .  A
O461        C468   1.256       .  A
C462        O469   1.260       .  A
C462        O463   1.269       .  A
C464        C475   1.495       .  S
C464        O466   1.252       .  A
C464        O470   1.264       .  A
C468        C481   1.493       .  S
C471        N472   1.385       .  A
C471        N476   1.389       .  A
C471        C553   1.523       .  S
N472        C473   1.370       .  A
C473        N474   1.338       .  A
N474        C475   1.339       .  A
C475        N476   1.376       .  A
C477        N478   1.378       .  A
C477        N482   1.389       .  A
N478        C479   1.365   1_554  A
C479        N480   1.341       .  A
N480        C481   1.339       .  A
C481        N482   1.375   1_556  A
C483        N484   1.387       .  A
C483        N488   1.381       .  A
N484        C485   1.375       .  A
C485        N486   1.339       .  A
N486        C487   1.341       .  A
C487        N488   1.369       .  A
In489       O491   2.291       .  S
In489       O492   2.308       .  S
In489       O500   2.370       .  S
In489       O494   2.272       .  S
In489       O496   2.214       .  S
In489       O497   2.291       .  S
In489       O498   2.264       .  S
In489       O501   2.285       .  S
C490        C745   1.468       .  S
C490        O496   1.254       .  A
C490        O498   1.259       .  A
O491        C499   1.264       .  A
O492        C499   1.256       .  A
C493        C525   1.522       .  S
C493        O500   1.273       .  A
C493        O494   1.259       .  A
C495        C557   1.486       .  S
C495        O497   1.252       .  A
C495        O501   1.267       .  A
C499        C504   1.487       .  S
C502        N503   1.388       .  A
C502        N507   1.391       .  A
N503        C504   1.377       .  A
C504        N505   1.338       .  A
N505        C506   1.335       .  A
C506        N507   1.378       .  A
C506        C518   1.494       .  S
In508       O510   2.293       .  S
In508       O511   2.305       .  S
In508       O519   2.380       .  S
In508       O513   2.233       .  S
In508       O515   2.218       .  S
In508       O516   2.271       .  S
In508       O517   2.268       .  S
In508       O520   2.280       .  S
C509       C1036   1.470       .  S
C509        O515   1.256       .  A
C509        O517   1.261       .  A
O510        C518   1.268       .  A
O511        C518   1.254       .  A
C512        C544   1.516       .  S
C512        O519   1.272       .  A
C512        O513   1.252       .  A
C514        C536   1.477       .  S
C514        O516   1.262       .  A
C514        O520   1.255       .  A
In521       O523   2.376       .  S
In521       O524   2.271       .  S
In521       O532   2.267       .  S
In521       O526   2.396       .  S
In521       O528   2.206       .  S
In521       O529   2.262       .  S
In521       O530   2.235       .  S
In521       O533   2.317       .  S
C522        C673   1.471       .  S
C522        O528   1.262       .  A
C522        O530   1.265       .  A
O523        C531   1.259       .  A
O524        C531   1.263       .  A
C525        O532   1.250       .  A
C525        O526   1.260       .  A
C527        C561   1.481       .  S
C527        O529   1.259       .  A
C527        O533   1.256       .  A
C531        C538   1.511       .  S
C534        N535   1.375       .  A
C534        N539   1.391       .  A
N535        C536   1.367       .  A
C536        N537   1.345       .  A
N537        C538   1.344       .  A
C538        N539   1.383       .  A
In540       O542   2.294       .  S
In540       O543   2.283       .  S
In540       O551   2.368       .  S
In540       O545   2.243       .  S
In540       O547   2.236       .  S
In540       O548   2.283       .  S
In540       O549   2.222       .  S
In540       O552   2.305       .  S
C541        C892   1.461       .  S
C541        O547   1.256       .  A
C541        O549   1.256       .  A
O542        C550   1.253       .  A
O543        C550   1.270       .  A
C544        O551   1.273       .  A
C544        O545   1.257       .  A
C546        C555   1.484       .  S
C546        O548   1.255       .  A
C546        O552   1.267       .  A
C550        C563   1.490       .  S
C553        N554   1.385       .  A
C553        N558   1.386       .  A
N554        C555   1.374       .  A
C555        N556   1.340       .  A
N556        C557   1.338       .  A
C557        N558   1.372       .  A
C559        N560   1.380       .  A
C559        N564   1.383       .  A
N560        C561   1.375       .  A
C561        N562   1.342       .  A
N562        C563   1.341       .  A
C563        N564   1.376       .  A
C565        N566   1.353       .  A
C565        N570   1.363       .  A
C565        C661   1.486       .  S
N566        C567   1.353       .  A
C567        N568   1.357       .  A
C567        C688   1.490       .  S
N568        C569   1.359       .  A
C569        N570   1.363       .  A
C569        C649   1.469   1_556  S
C571        N572   1.352       .  A
C571        N576   1.361       .  A
C571        C736   1.480       .  S
N572        C573   1.348       .  A
C573        N574   1.358       .  A
C573        C637   1.465   1_655  S
N574        C575   1.358       .  A
C575        N576   1.360       .  A
C575        C652   1.494       .  S
C577        N578   1.358       .  A
C577        N582   1.364       .  A
C577        C613   1.456       .  S
N578        C579   1.354       .  A
C579        N580   1.351       .  A
C579        C697   1.456       .  S
N580        C581   1.347       .  A
C581        N582   1.357       .  A
C581        C625   1.482       .  S
C583        N584   1.360       .  A
C583        N588   1.367       .  A
C583        C724   1.473       .  S
N584        C585   1.352   1_655  A
C585        N586   1.344       .  A
C585        C601   1.449       .  S
N586        C587   1.342   1_455  A
C587        N588   1.361       .  A
C587        C640   1.480   1_655  S
C589        N590   1.349       .  A
C589        N594   1.365   1_554  A
C589        C709   1.477       .  S
N590        C591   1.346       .  A
C591        N592   1.348       .  A
C591        C604   1.467       .  S
N592        C593   1.355   1_554  A
C593        N594   1.368       .  A
C593        C628   1.484       .  S
C595        N596   1.362       .  A
C595        N600   1.361       .  A
C595        C676   1.486   1_655  S
N596        C597   1.355       .  A
C597        N598   1.350       .  A
C597        C664   1.461       .  S
N598        C599   1.352       .  A
C599        N600   1.358       .  A
C599        C616   1.484       .  S
C601        C602   1.398       .  A
C601        C606   1.402       .  A
C602        C603   1.385       .  A
C602        H607   1.085       .  S
C603        C604   1.408       .  A
C603        O608   1.372       .  S
C604        C605   1.410       .  A
C605        C606   1.396       .  A
C605        H609   1.084       .  S
C606        O610   1.372       .  S
O608        H612   0.991       .  S
O610        H611   0.992       .  S
C613        C614   1.398       .  A
C613        C618   1.400   1_455  A
C614        C615   1.395       .  A
C614        H619   1.084       .  S
C615        C616   1.414   1_455  A
C615        O620   1.371       .  S
C616        C617   1.411       .  A
C617        C618   1.396       .  A
C617        H621   1.083       .  S
C618        O622   1.373       .  S
O620        H624   0.991       .  S
O622        H623   0.992       .  S
C625        C626   1.410       .  A
C625        C630   1.406       .  A
C626        C627   1.396       .  A
C626        H631   1.084       .  S
C627        C628   1.407       .  A
C627        O632   1.371       .  S
C628        C629   1.412       .  A
C629        C630   1.399       .  A
C629        H633   1.084       .  S
C630        O634   1.372       .  S
O632        H636   0.992       .  S
O634        H635   0.992       .  S
C637        C638   1.394       .  A
C637        C642   1.413   1_455  A
C638        C639   1.395       .  A
C638        H643   1.084       .  S
C639        C640   1.420       .  A
C639        O644   1.374       .  S
C640        C641   1.400   1_455  A
C641        C642   1.395       .  A
C641        H645   1.084       .  S
C642        O646   1.372       .  S
O644        H648   0.992       .  S
O646        H647   0.990       .  S
C649        C650   1.401       .  A
C649        C654   1.402       .  A
C650        C651   1.400       .  A
C650        H655   1.084       .  S
C651        C652   1.415       .  A
C651        O656   1.371       .  S
C652        C653   1.412       .  A
C653        C654   1.402       .  A
C653        H657   1.083   1_655  S
C654        O658   1.372       .  S
O656        H660   0.991       .  S
O658        H659   0.992       .  S
C661        C662   1.411       .  A
C661        C666   1.411       .  A
C662        C663   1.392       .  A
C662        H667   1.083       .  S
C663        C664   1.398       .  A
C663        O668   1.372       .  S
C664        C665   1.405       .  A
C665        C666   1.404       .  A
C665        H669   1.084   1_655  S
C666        O670   1.371       .  S
O668        H672   0.992       .  S
O670        H671   0.991   1_655  S
C673        C674   1.402       .  A
C673        C678   1.405       .  A
C674        C675   1.401       .  A
C674        H679   1.082       .  S
C675        C676   1.412       .  A
C675        O680   1.373   1_455  S
C676        C677   1.409       .  A
C677        C678   1.399       .  A
C677        H681   1.083       .  S
C678        O682   1.372       .  S
O680        H684   0.992   1_655  S
O682        H683   0.991       .  S
C685        C686   1.409       .  A
C685        C690   1.413       .  A
C686        C687   1.400       .  A
C686        H691   1.084       .  S
C687        C688   1.404       .  A
C687        O692   1.370   1_556  S
C688        C689   1.405       .  A
C689        C690   1.401       .  A
C689        H693   1.084       .  S
C690        O694   1.369       .  S
O692        H696   0.991       .  S
O694        H695   0.992       .  S
C697        C698   1.402       .  A
C697        C702   1.401       .  A
C698        C699   1.396       .  A
C698        H703   1.084       .  S
C699        C700   1.408       .  A
C699        O704   1.371       .  S
C700        C701   1.401       .  A
C701        C702   1.394       .  A
C701        H705   1.069       .  S
C702        O706   1.374       .  S
O704        H708   0.991       .  S
O706        H707   0.991       .  S
C709        C710   1.410       .  A
C709        C714   1.407       .  A
C710        C711   1.403       .  A
C710        H715   1.084       .  S
C711        C712   1.404       .  A
C711        O716   1.373       .  S
C712        C713   1.404       .  A
C713        C714   1.398       .  A
C713        H717   1.083       .  S
C714        O718   1.372   1_554  S
O716        H720   0.992       .  S
O718        H719   0.992       .  S
C721        C722   1.406       .  A
C721        C726   1.406       .  A
C722        C723   1.395       .  A
C722        H727   1.079       .  S
C723        C724   1.405       .  A
C723        O728   1.372       .  S
C724        C725   1.405       .  A
C725        C726   1.399       .  A
C725        H729   1.083       .  S
C726        O730   1.371       .  S
O728        H732   0.991       .  S
O730        H731   0.992       .  S
C733        C734   1.398       .  A
C733        C738   1.408       .  A
C734        C735   1.398       .  A
C734        H739   1.082       .  S
C735        C736   1.415       .  A
C735        O740   1.374       .  S
C736        C737   1.404       .  A
C737        C738   1.393       .  A
C737        H741   1.083       .  S
C738        O742   1.371       .  S
O740        H744   0.989       .  S
O742        H743   0.991       .  S
C745        C746   1.401       .  A
C745        C750   1.403       .  A
C746        C747   1.400       .  A
C746        H751   1.079       .  S
C747        C748   1.409       .  A
C747        O752   1.372       .  S
C748        C749   1.405       .  A
C749        C750   1.387       .  A
C749        H753   1.081       .  S
C750        O754   1.373       .  S
O752        H756   0.992       .  S
O754        H755   0.991       .  S
C757        C758   1.408       .  A
C757        C762   1.409       .  A
C758        C759   1.400       .  A
C758        H763   1.083       .  S
C759        C760   1.408       .  A
C759        O764   1.373       .  S
C760        C761   1.405       .  A
C761        C762   1.403       .  A
C761        H765   1.083       .  S
C762        O766   1.373       .  S
O764        H768   0.992       .  S
O766        H767   0.992       .  S
C769        C770   1.395       .  A
C769        C774   1.407       .  A
C770        C771   1.397       .  A
C770        H775   1.084   1_565  S
C771        C772   1.413       .  A
C771        O776   1.367       .  S
C772        C773   1.404       .  A
C773        C774   1.397       .  A
C773        H777   1.084       .  S
C774        O778   1.372       .  S
O776        H780   0.990       .  S
O778        H779   0.991       .  S
C781        C782   1.401       .  A
C781        C786   1.413   1_556  A
C782        C783   1.403       .  A
C782        H787   1.083       .  S
C783        C784   1.416   1_556  A
C783        O788   1.372       .  S
C784        C785   1.403       .  A
C785        C786   1.398       .  A
C785        H789   1.084       .  S
C786        O790   1.371       .  S
O788        H792   0.989       .  S
O790        H791   0.992       .  S
C793        C794   1.402       .  A
C793        C798   1.412   1_556  A
C794        C795   1.391   1_545  A
C794        H799   1.084       .  S
C795        C796   1.412   1_556  A
C795        O800   1.372       .  S
C796        C797   1.399   1_565  A
C797        C798   1.398       .  A
C797        H801   1.084       .  S
C798        O802   1.374       .  S
O800        H804   0.991       .  S
O802        H803   0.990       .  S
C805        C806   1.396       .  A
C805        C810   1.404       .  A
C806        C807   1.403       .  A
C806        H811   1.084       .  S
C807        C808   1.413       .  A
C807        O812   1.371       .  S
C808        C809   1.407       .  A
C809        C810   1.399       .  A
C809        H813   1.082       .  S
C810        O814   1.372       .  S
O812        H816   0.991       .  S
O814        H815   0.991       .  S
C817        C818   1.412       .  A
C817        C822   1.407       .  A
C818        C819   1.399       .  A
C818        H823   1.083       .  S
C819        C820   1.406       .  A
C819        O824   1.372       .  S
C820        C821   1.393       .  A
C821        C822   1.386       .  A
C821        H825   1.073       .  S
C822        O826   1.372       .  S
O824        H828   0.992       .  S
O826        H827   0.991       .  S
C829        C830   1.411       .  A
C829        C834   1.408       .  A
C830        C831   1.400       .  A
C830        H835   1.083       .  S
C831        C832   1.408       .  A
C831        O836   1.372       .  S
C832        C833   1.408       .  A
C833        C834   1.393       .  A
C833        H837   1.083   1_554  S
C834        O838   1.372   1_554  S
O836        H840   0.991       .  S
O838        H839   0.990       .  S
C841        C842   1.404       .  A
C841        C846   1.421       .  A
C842        C843   1.398       .  A
C842        H847   1.084   1_554  S
C843        C844   1.411       .  A
C843        O848   1.371   1_565  S
C844        C845   1.396       .  A
C845        C846   1.400       .  A
C845        H849   1.084       .  S
C846        O850   1.370       .  S
O848        H852   0.991       .  S
O850        H851   0.991       .  S
C853        C854   1.411       .  A
C853        C858   1.410       .  A
C854        C855   1.407       .  A
C854        H859   1.083       .  S
C855        C856   1.408       .  A
C855        O860   1.372       .  S
C856        C857   1.409       .  A
C857        C858   1.404       .  A
C857        H861   1.082       .  S
C858        O862   1.372       .  S
O860        H864   0.992       .  S
O862        H863   0.992       .  S
C865        C866   1.396       .  A
C865        C870   1.410       .  A
C866        C867   1.396       .  A
C866        H871   1.083   1_554  S
C867        C868   1.413       .  A
C867        O872   1.373   1_545  S
C868        C869   1.401       .  A
C869        C870   1.392       .  A
C869        H873   1.084       .  S
C870        O874   1.371       .  S
O872        H876   0.990       .  S
O874        H875   0.992       .  S
C877        C878   1.395       .  A
C877        C882   1.415   1_556  A
C878        C879   1.395       .  A
C878        H883   1.084       .  S
C879        C880   1.415   1_556  A
C879        O884   1.373       .  S
C880        C881   1.395       .  A
C881        C882   1.402       .  A
C881        H885   1.083       .  S
C882        O886   1.371       .  S
O884        H888   0.990       .  S
O886        H887   0.992       .  S
C889        C890   1.397       .  A
C889        C894   1.402       .  A
C890        C891   1.394       .  A
C890        H895   1.084       .  S
C891        C892   1.407       .  A
C891        O896   1.368       .  S
C892        C893   1.401       .  A
C893        C894   1.385       .  A
C893        H897   1.078       .  S
C894        O898   1.373       .  S
O896        H900   0.991       .  S
O898        H899   0.992       .  S
C901        C902   1.410       .  A
C901        C906   1.400       .  A
C902        C903   1.405       .  A
C902        H907   1.084       .  S
C903        C904   1.411       .  A
C903        O908   1.372       .  S
C904        C905   1.405       .  A
C905        C906   1.391       .  A
C905        H909   1.071       .  S
C906        O910   1.371       .  S
O908        H912   0.990       .  S
O910        H911   0.991       .  S
C913        C914   1.402       .  A
C913        C918   1.418       .  A
C914        C915   1.396       .  A
C914        H919   1.084       .  S
C915        C916   1.410       .  A
C915        O920   1.369       .  S
C916        C917   1.396       .  A
C917        C918   1.397       .  A
C917        H921   1.079       .  S
C918        O922   1.371       .  S
O920        H924   0.991       .  S
O922        H923   0.991       .  S
C925        C926   1.399       .  A
C925        C930   1.405       .  A
C926        C927   1.400       .  A
C926        H931   1.084       .  S
C927        C928   1.411       .  A
C927        O932   1.367       .  S
C928        C929   1.405       .  A
C929        C930   1.396       .  A
C929        H933   1.081       .  S
C930        O934   1.372       .  S
O932        H936   0.991       .  S
O934        H935   0.990       .  S
C937        C938   1.400       .  A
C937        C942   1.406       .  A
C938        C939   1.393       .  A
C938        H943   1.084       .  S
C939        C940   1.414       .  A
C939        O944   1.373       .  S
C940        C941   1.408       .  A
C941        C942   1.396       .  A
C941        H945   1.084       .  S
C942        O946   1.372       .  S
O944        H948   0.992       .  S
O946        H947   0.992       .  S
C949        C950   1.403       .  A
C949        C954   1.412       .  A
C950        C951   1.398       .  A
C950        H955   1.083       .  S
C951        C952   1.407       .  A
C951        O956   1.368       .  S
C952        C953   1.404       .  A
C953        C954   1.403       .  A
C953        H957   1.083       .  S
C954        O958   1.371       .  S
O956        H960   0.991       .  S
O958        H959   0.991       .  S
C961        C962   1.402       .  A
C961        C966   1.407       .  A
C962        C963   1.396       .  A
C962        H967   1.084       .  S
C963        C964   1.408       .  A
C963        O968   1.368       .  S
C964        C965   1.403       .  A
C965        C966   1.398       .  A
C965        H969   1.078       .  S
C966        O970   1.374       .  S
O968        H972   0.993       .  S
O970        H971   0.992       .  S
C973        C974   1.403       .  A
C973        C978   1.405       .  A
C974        C975   1.401       .  A
C974        H979   1.084       .  S
C975        C976   1.414       .  A
C975        O980   1.373       .  S
C976        C977   1.406       .  A
C977        C978   1.399       .  A
C977        H981   1.084       .  S
C978        O982   1.372       .  S
O980        H984   0.992       .  S
O982        H983   0.991       .  S
C985        C986   1.407       .  A
C985        C990   1.416       .  A
C986        C987   1.399       .  A
C986        H991   1.083       .  S
C987        C988   1.411       .  A
C987        O992   1.371       .  S
C988        C989   1.403       .  A
C989        C990   1.395       .  A
C989        H993   1.084       .  S
C990        O994   1.372       .  S
O992        H996   0.991       .  S
O994        H995   0.991       .  S
C997        C998   1.406       .  A
C997       C1002   1.404       .  A
C998        C999   1.399       .  A
C998       H1003   1.084       .  S
C999       C1000   1.408       .  A
C999       O1004   1.373       .  S
C1000      C1001   1.412       .  A
C1001      C1002   1.404       .  A
C1001      H1005   1.082       .  S
C1002      O1006   1.372       .  S
O1004      H1008   0.991       .  S
O1006      H1007   0.992       .  S
C1009      C1010   1.399       .  A
C1009      C1014   1.412       .  A
C1010      C1011   1.396       .  A
C1010      H1015   1.084       .  S
C1011      C1012   1.410       .  A
C1011      O1016   1.372       .  S
C1012      C1013   1.398       .  A
C1013      C1014   1.401       .  A
C1013      H1017   1.084       .  S
C1014      O1018   1.373       .  S
O1016      H1020   0.991       .  S
O1018      H1019   0.992       .  S
C1021      C1022   1.404       .  A
C1021      C1026   1.406       .  A
C1022      C1023   1.393       .  A
C1022      H1027   1.084       .  S
C1023      C1024   1.401       .  A
C1023      O1028   1.374       .  S
C1024      C1025   1.400       .  A
C1025      C1026   1.394       .  A
C1025      H1029   1.084       .  S
C1026      O1030   1.370       .  S
O1028      H1032   0.992       .  S
O1030      H1031   0.991       .  S
C1033      C1034   1.404       .  A
C1033      C1038   1.400       .  A
C1034      C1035   1.401       .  A
C1034      H1039   1.084       .  S
C1035      C1036   1.408       .  A
C1035      O1040   1.370       .  S
C1036      C1037   1.405       .  A
C1037      C1038   1.395       .  A
C1037      H1041   1.075       .  S
C1038      O1042   1.374       .  S
O1040      H1044   0.990       .  S
O1042      H1043   0.993       .  S
C1045      C1046   1.411       .  A
C1045      C1050   1.404       .  A
C1046      C1047   1.397       .  A
C1046      H1051   1.083       .  S
C1047      C1048   1.404       .  A
C1047      O1052   1.372       .  S
C1048      C1049   1.399       .  A
C1049      C1050   1.392       .  A
C1049      H1053   1.068       .  S
C1050      O1054   1.372       .  S
O1052      H1056   0.992       .  S
O1054      H1055   0.991       .  S
C1057      C1058   1.402   1_655  A
C1057      C1062   1.413       .  A
C1058      C1059   1.400       .  A
C1058      H1063   1.084       .  S
C1059      C1060   1.409       .  A
C1059      O1064   1.373       .  S
C1060      C1061   1.401       .  A
C1061      C1062   1.401   1_455  A
C1061      H1065   1.084       .  S
C1062      O1066   1.371       .  S
O1064      H1068   0.990       .  S
O1066      H1067   0.991       .  S
C1069      C1070   1.413       .  A
C1069      C1074   1.409       .  A
C1070      C1071   1.404       .  A
C1070      H1075   1.083       .  S
C1071      C1072   1.403       .  A
C1071      O1076   1.372       .  S
C1072      C1073   1.405       .  A
C1073      C1074   1.396       .  A
C1073      H1077   1.077       .  S
C1074      O1078   1.372       .  S
O1076      H1080   0.991       .  S
O1078      H1079   0.992       .  S
C1081      C1082   1.401       .  A
C1081      C1086   1.414       .  A
C1082      C1083   1.392       .  A
C1082      H1087   1.083       .  S
C1083      C1084   1.413       .  A
C1083      O1088   1.371       .  S
C1084      C1085   1.401       .  A
C1085      C1086   1.394       .  A
C1085      H1089   1.083       .  S
C1086      O1090   1.371       .  S
O1088      H1092   0.992       .  S
O1090      H1091   0.992       .  S
C1093      C1094   1.403       .  A
C1093      C1098   1.409       .  A
C1094      C1095   1.392       .  A
C1094      H1099   1.083       .  S
C1095      C1096   1.408       .  A
C1095      O1100   1.369       .  S
C1096      C1097   1.405       .  A
C1097      C1098   1.400       .  A
C1097      H1101   1.084       .  S
C1098      O1102   1.371       .  S
O1100      H1104   0.992       .  S
O1102      H1103   0.992       .  S
C1105      C1106   1.406   1_565  A
C1105      C1110   1.416       .  A
C1106      C1107   1.392       .  A
C1106      H1111   1.083       .  S
C1107      C1108   1.408   1_545  A
C1107      O1112   1.373       .  S
C1108      C1109   1.403       .  A
C1109      C1110   1.403       .  A
C1109      H1113   1.084       .  S
C1110      O1114   1.371       .  S
O1112      H1116   0.992       .  S
O1114      H1115   0.991       .  S
C1117      C1118   1.409       .  A
C1117      C1122   1.401       .  A
C1118      C1119   1.402       .  A
C1118      H1123   1.084       .  S
C1119      C1120   1.407       .  A
C1119      O1124   1.373       .  S
C1120      C1121   1.408       .  A
C1121      C1122   1.400       .  A
C1121      H1125   1.074       .  S
C1122      O1126   1.371       .  S
O1124      H1128   0.992       .  S
O1126      H1127   0.991       .  S
C1129      C1130   1.405       .  A
C1129      C1134   1.398       .  A
C1130      C1131   1.402       .  A
C1130      H1135   1.084       .  S
C1131      C1132   1.410       .  A
C1131      O1136   1.371       .  S
C1132      C1133   1.410       .  A
C1133      C1134   1.397       .  A
C1133      H1137   1.083       .  S
C1134      O1138   1.371       .  S
O1136      H1140   0.992       .  S
O1138      H1139   0.991       .  S
C1141      C1142   1.399       .  A
C1141      C1146   1.404       .  A
C1142      C1143   1.393       .  A
C1142      H1147   1.084       .  S
C1143      C1144   1.406       .  A
C1143      O1148   1.367       .  S
C1144      C1145   1.406       .  A
C1145      C1146   1.395       .  A
C1145      H1149   1.083       .  S
C1146      O1150   1.371       .  S
O1148      H1152   0.993       .  S
O1150      H1151   0.992       .  S
C1153      C1154   1.404       .  A
C1153      C1158   1.403   1_565  A
C1154      C1155   1.397       .  A
C1154      H1159   1.084       .  S
C1155      C1156   1.409   1_565  A
C1155      O1160   1.371       .  S
C1156      C1157   1.409       .  A
C1157      C1158   1.393       .  A
C1157      H1161   1.084       .  S
C1158      O1162   1.374       .  S
O1160      H1164   0.989       .  S
O1162      H1163   0.990       .  S
C1165      C1166   1.406       .  A
C1165      C1170   1.412       .  A
C1166      C1167   1.398   1_565  A
C1166      H1171   1.083   1_565  S
C1167      C1168   1.409   1_645  A
C1167      O1172   1.371       .  S
C1168      C1169   1.406   1_455  A
C1169      C1170   1.402       .  A
C1169      H1173   1.083   1_655  S
C1170      O1174   1.374       .  S
O1172      H1176   0.994       .  S
O1174      H1175   0.992       .  S
