geometry optimzed in LAMMPS
_audit_creation_date              2020-12-01 
_audit_creation_method            'lammps2cif' 
_symmetry_space_group_name_H-M    'P1' 
_symmetry_Int_Tables_number       1 
_symmetry_cell_setting            triclinic 
loop_ 
_symmetry_equiv_pos_as_xyz 
  x,y,z 
_cell_length_a                    34.19987763 
_cell_length_b                    25.051748075179468 
_cell_length_c                    25.89294661970496 
_cell_angle_alpha                 77.66814911616524 
_cell_angle_beta                  88.771449109915 
_cell_angle_gamma                 90.61178131830144 
loop_ 
_atom_site_label 
_atom_site_type_symbol 
_atom_site_fract_x 
_atom_site_fract_y 
_atom_site_fract_z 
_atom_site_charge 
Zn1        Zn  0.99366615  0.43889008  0.95318495     1.49700
Zn2        Zn  0.44888314  0.47977461  0.05843426     1.49400
Zn3        Zn  0.03263543  0.48545002  0.04309577     1.49100
Zn4        Zn  0.98760530  0.08043834  0.94468333     1.49500
O5          O  0.98392324  0.00858297  0.99421844    -1.82100
O6          O  0.44143159  0.39816084  0.97262928    -0.72300
O7          O  0.46710580  0.47038775  0.13424997    -0.72100
O8          O  0.06794881  0.42700910  0.03382577    -0.71600
O9          O  0.41752172  0.41780597  0.04710821    -0.72300
O10         O  0.04347646  0.39516621  0.96738012    -0.71900
O11         O  0.02087065  0.47721760  0.12050060    -0.72500
O12         O  0.03969418  0.11848825  0.95222229    -0.71900
O13         O  0.41643561  0.02938955  0.07378539    -0.72600
O14         O  0.06618228  0.05889350  0.01792490    -0.72000
O15         O  0.42590827  0.08673922  0.99569170    -0.72500
O16         O  0.98353853  0.07231127  0.86879243    -0.72400
O17         O  0.99521637  0.47974517  0.87682919    -0.72200
C18         C  0.41515807  0.39340277  0.00907355     0.79600
C19         C  0.50121575  0.47529550  0.15148245     0.80100
C20         C  0.07013186  0.39644462  0.00076023     0.79100
C21         C  0.06811327  0.10273333  0.98269458     0.79500
C22         C  0.40600129  0.06937693  0.03850807     0.80600
C23         C  0.97690058  0.03010338  0.85026695     0.79600
N24         N  0.18374405  0.24226664  0.01933970    -0.34100
N25         N  0.24104489  0.32289765  0.03355803    -0.54700
N26         N  0.29783567  0.24136091  0.02926375    -0.34100
N27         N  0.24100869  0.16066266  0.01708870    -0.54700
C28         C  0.16327547  0.27815625  0.04078801     0.29500
C29         C  0.16285511  0.19507582  0.02977087     0.29500
C30         C  0.31761519  0.27965330  0.04805642     0.29500
C31         C  0.31798429  0.19467222  0.04277513     0.29500
C32         C  0.20973473  0.35522672  0.02402666     0.38100
C33         C  0.27296279  0.35579672  0.02500085     0.38100
C34         C  0.21038440  0.13541481  0.00004294     0.38100
C35         C  0.27357710  0.13529526  0.00565724     0.38100
C36         C  0.13006062  0.25294396  0.06711521    -0.19400
C37         C  0.12975208  0.20024156  0.06005935    -0.19400
C38         C  0.34938929  0.25691158  0.07621158    -0.19400
C39         C  0.35011759  0.20350983  0.07225492    -0.19400
C40         C  0.22161177  0.40964381  0.01029826    -0.20500
C41         C  0.26204788  0.40998877  0.01075081    -0.20500
C42         C  0.22333955  0.09255448  0.97835604    -0.20500
C43         C  0.26367712  0.09247935  0.98193175    -0.20500
C44         C  0.17108749  0.33468062  0.03005260    -0.15800
C45         C  0.17127359  0.14968996  0.00778831    -0.15800
C46         C  0.31119109  0.14843135  0.02104191    -0.15800
C47         C  0.31112968  0.33589710  0.03284993    -0.15800
H48         H  0.10766618  0.27132576  0.08751151     0.17100
H49         H  0.10724358  0.16963958  0.07438484     0.17100
H50         H  0.37114246  0.27749404  0.09505126     0.17100
H51         H  0.37309870  0.17622591  0.08812743     0.17100
H52         H  0.20324412  0.44516386  0.00103794     0.15400
H53         H  0.28101511  0.44579772  0.00211323     0.15400
H54         H  0.20568892  0.06405100  0.96244411     0.15400
H55         H  0.28326913  0.06364831  0.96963944     0.15400
H56         H  0.20715501  0.25180246  0.99229651     0.28600
H57         H  0.27627502  0.24917975  0.00088579     0.28600
N58         N  0.00223890  0.98909886  0.67785810    -0.01000
C59         C  0.98673372  0.98813204  0.72665028     0.01600
C60         C  0.95676432  0.44153783  0.74438223    -0.21300
C61         C  0.96067059  0.41050637  0.70694931    -0.21500
C62         C  0.98439826  0.44003087  0.66667898     0.01500
H63         H  0.94317985  0.42820439  0.78323036     0.15300
H64         H  0.94893476  0.36962804  0.70993983     0.15300
N65         N  0.53874985  0.50858594  0.31414163    -0.01000
C66         C  0.55333114  0.50730647  0.26498036     0.01600
C67         C  0.57284022  0.05517919  0.24158925    -0.21300
C68         C  0.56765490  0.08946296  0.27560635    -0.21500
C69         C  0.54761621  0.05999541  0.32000397     0.01500
H70         H  0.58511335  0.06634108  0.20178755     0.15300
H71         H  0.57595888  0.13224469  0.26674623     0.15300
N72         N  0.02678119  0.17027637  0.49536213    -0.34100
N73         N  0.03304909  0.27051324  0.41325094    -0.54700
N74         N  0.02086023  0.33687843  0.49150536    -0.34100
N75         N  0.01965811  0.23564111  0.57507297    -0.54700
C76         C  0.04015079  0.15002608  0.45396129     0.29500
C77         C  0.03080173  0.13085367  0.53969207     0.29500
C78         C  0.03441399  0.37486890  0.44932151     0.29500
C79         C  0.02779873  0.35644905  0.53537532     0.29500
C80         C  0.03104787  0.23287088  0.38269046     0.38100
C81         C  0.02796573  0.32001312  0.38072756     0.38100
C82         C  0.00875259  0.18558281  0.60436401     0.38100
C83         C  0.00812353  0.27334988  0.60287194     0.38100
C84         C  0.05376852  0.09775349  0.47215775    -0.19400
C85         C  0.04698176  0.08508140  0.52568830    -0.19400
C86         C  0.05070471  0.41863127  0.46664563    -0.19400
C87         C  0.04685900  0.40679701  0.52092543    -0.19400
C88         C  0.02450323  0.25869915  0.33069622    -0.20500
C89         C  0.02252319  0.31365430  0.32947304    -0.20500
C90         C  0.99102013  0.19169202  0.65133992    -0.20500
C91         C  0.99042018  0.24677402  0.65031476    -0.20500
C92         C  0.03780066  0.17600720  0.40001731    -0.15800
C93         C  0.01606309  0.13417724  0.59060056    -0.15800
C94         C  0.01512105  0.33108536  0.58740877    -0.15800
C95         C  0.03171486  0.37111539  0.39567703    -0.15800
H96         H  0.06658291  0.07055972  0.44941518     0.17100
H97         H  0.05325784  0.04574730  0.54973302     0.17100
H98         H  0.06460915  0.45491935  0.44285677     0.17100
H99         H  0.05744031  0.43226919  0.54668888     0.17100
H100        H  0.02174601  0.24001012  0.29690199     0.15400
H101        H  0.01807491  0.34531444  0.29456939     0.15400
H102        H  0.97977274  0.15985717  0.68342079     0.15400
H103        H  0.97790791  0.26480692  0.68117884     0.15400
H104        H  0.01105433  0.20603980  0.49271805     0.28600
H105        H  0.00418636  0.30215715  0.49012020     0.28600
C106        C  0.52206338  0.46290813  0.35290793    -0.13900
C107        C  0.03775176  0.42111512  0.35228136    -0.29100
H108        H  0.50075937  0.47088492  0.38188163     0.15100
H109        H  0.05643572  0.41684011  0.31908151     0.15700
C110        C  0.04635738  0.14420785  0.35841335    -0.13900
C111        C  0.53377997  0.08484527  0.36465799    -0.29100
H112        H  0.06538923  0.16479457  0.32614405     0.15100
H113        H  0.51072978  0.06423676  0.39119847     0.15700
C114        C  0.02089809  0.03592681  0.64351693    -0.13900
C115        C  0.00113285  0.08295669  0.62793866    -0.29100
H116        H  0.05143182  0.03316938  0.63277393     0.15100
H117        H  0.44386341  0.07549290  0.64201117     0.15700
C118        C  0.99791780  0.41737288  0.62084811    -0.13900
C119        C  0.00959329  0.36459044  0.62897269    -0.29100
H120        H  0.46828881  0.43447125  0.58414826     0.15100
H121        H  0.01275621  0.34327830  0.66978699     0.15700
C122        C  0.36870741  0.09347880  0.04836461    -0.13900
C123        C  0.34547976  0.11715589  0.00955602    -0.29100
H124        H  0.35874468  0.08890267  0.08927148     0.15100
H125        H  0.35284998  0.11674649  0.96862017     0.15700
C126        C  0.10478218  0.36254451  0.00096785    -0.13900
C127        C  0.13758423  0.37217176  0.02589015    -0.29100
H128        H  0.10355665  0.32921457  0.98016603     0.15100
H129        H  0.13995112  0.40790238  0.04321693     0.15700
C130        C  0.10421472  0.13599847  0.97830797    -0.13900
C131        C  0.13815876  0.11436520  0.99842211    -0.29100
H132        H  0.10244176  0.17954848  0.96167950     0.15100
H133        H  0.14075690  0.07039383  0.01166596     0.15700
C134        C  0.37977094  0.36102534  0.00636257    -0.13900
C135        C  0.34547490  0.37334334  0.02775343    -0.29100
H136        H  0.38157878  0.32690810  0.98663936     0.15100
H137        H  0.34299079  0.41029204  0.04315516     0.15700
C138        C  0.54176740  0.47048603  0.23009401    -0.13900
C139        C  0.50621709  0.47517654  0.20841836    -0.29100
H140        H  0.05162489  0.45463019  0.21151511     0.15100
H141        H  0.48599400  0.96861585  0.23977176     0.15700
C142        C  0.96680571  0.03536314  0.79481165    -0.13900
C143        C  0.99418206  0.02887763  0.75905763    -0.29100
H144        H  0.42499464  0.02095553  0.80949600     0.15100
H145        H  0.02518193  0.51648911  0.77102209     0.15700
Zn146      Zn  0.98288170  0.94967629  0.95592967     1.49700
Zn147      Zn  0.45045570  0.96861360  0.07058891     1.49400
Zn148      Zn  0.02870860  0.99726650  0.03926005     1.49100
Zn149      Zn  0.97797821  0.56252250  0.95911162     1.49500
O150        O  0.98656605  0.48846962  0.00119310    -1.82100
O151        O  0.43664273  0.89593457  0.97987178    -0.72300
O152        O  0.47214907  0.94656652  0.14449971    -0.72100
O153        O  0.06131608  0.93599410  0.02910829    -0.71600
O154        O  0.41116755  0.91754132  0.05252131    -0.72300
O155        O  0.03321985  0.90538690  0.96445688    -0.71900
O156        O  0.01424990  0.98689842  0.11615922    -0.72500
O157        O  0.02845279  0.60906510  0.96125351    -0.71900
O158        O  0.40783777  0.53423164  0.04945002    -0.72600
O159        O  0.06514198  0.55083953  0.01634978    -0.72000
O160        O  0.42412022  0.59896791  0.97884299    -0.72500
O161        O  0.97030502  0.55986502  0.88263319    -0.72400
O162        O  0.97599393  0.98221475  0.87927605    -0.72200
C163        C  0.40845966  0.89510759  0.01312821     0.79600
C164        C  0.50466588  0.96251418  0.15937268     0.80100
C165        C  0.06135909  0.90538635  0.99601302     0.79100
C166        C  0.06099881  0.59606699  0.98403229     0.79500
C167        C  0.39974152  0.57682577  0.01572862     0.80600
C168        C  0.98041680  0.52538694  0.85552543     0.79600
N169        N  0.17555299  0.74877670  0.00498441    -0.34100
N170        N  0.23281996  0.82753941  0.02470229    -0.54700
N171        N  0.29105127  0.74868654  0.01329374    -0.34100
N172        N  0.23461886  0.66989473  0.99625669    -0.54700
C173        C  0.15485131  0.78383711  0.02737483     0.29500
C174        C  0.15549989  0.70080638  0.01578735     0.29500
C175        C  0.31010364  0.78375611  0.03724582     0.29500
C176        C  0.31215496  0.70253901  0.02106781     0.29500
C177        C  0.20161053  0.86032589  0.01545251     0.38100
C178        C  0.26484111  0.86027085  0.02023566     0.38100
C179        C  0.20338542  0.64370991  0.98161185     0.38100
C180        C  0.26708770  0.64595971  0.98172319     0.38100
C181        C  0.12233552  0.75752737  0.05448315    -0.19400
C182        C  0.12287944  0.70481489  0.04750816    -0.19400
C183        C  0.34235801  0.75888968  0.06284665    -0.19400
C184        C  0.34426714  0.70817320  0.05166265    -0.19400
C185        C  0.21372734  0.91466993  0.00577722    -0.20500
C186        C  0.25406489  0.91460803  0.00883117    -0.20500
C187        C  0.21600082  0.60195625  0.95801468    -0.20500
C188        C  0.25653173  0.60351524  0.95793728    -0.20500
C189        C  0.16270896  0.84027147  0.01895664    -0.15800
C190        C  0.16417916  0.65552006  0.99345551    -0.15800
C191        C  0.30532880  0.65907933  0.99543886    -0.15800
C192        C  0.30302773  0.84011432  0.02842166    -0.15800
H193        H  0.10021276  0.77486069  0.07624043     0.17100
H194        H  0.10126514  0.67335269  0.06323276     0.17100
H195        H  0.36375510  0.77672803  0.08463939     0.17100
H196        H  0.36766943  0.68021043  0.06408333     0.17100
H197        H  0.19557256  0.95046504  0.99763508     0.15400
H198        H  0.27311251  0.95024048  0.00346794     0.15400
H199        H  0.19800560  0.57294896  0.94328878     0.15400
H200        H  0.27587027  0.57560753  0.94370842     0.15400
H201        H  0.19884007  0.75924944  0.97787069     0.28600
H202        H  0.26904203  0.75895838  0.98584116     0.28600
N203        N  0.99422973  0.48922570  0.67764953    -0.01000
C204        C  0.97833065  0.48911044  0.72609730     0.01600
C205        C  0.97064648  0.93718366  0.74832583    -0.21300
C206        C  0.97696416  0.90536538  0.71221855    -0.21500
C207        C  0.99688375  0.93759975  0.66944536     0.01500
H208        H  0.95784233  0.92354228  0.78759830     0.15300
H209        H  0.96820473  0.86291530  0.71696723     0.15300
N210        N  0.54055222  0.00781855  0.31406575    -0.01000
C211        C  0.55556038  0.00596988  0.26533475     0.01600
C212        C  0.57467979  0.55405009  0.24421980    -0.21300
C213        C  0.57241364  0.58648218  0.28036110    -0.21500
C214        C  0.54954696  0.55860595  0.32292496     0.01500
H215        H  0.58816650  0.56514988  0.20511128     0.15300
H216        H  0.58516468  0.62702836  0.27402210     0.15300
N217        N  0.02317513  0.66899549  0.49522928    -0.34100
N218        N  0.02873762  0.76990979  0.41183801    -0.54700
N219        N  0.01985754  0.83680429  0.48917673    -0.34100
N220        N  0.01976800  0.73485453  0.57362951    -0.54700
C221        C  0.03637790  0.64877048  0.45377717     0.29500
C222        C  0.02717051  0.62951347  0.53958585     0.29500
C223        C  0.03200699  0.87459851  0.44590735     0.29500
C224        C  0.02997673  0.85587083  0.53227293     0.29500
C225        C  0.02615608  0.73150129  0.38218585     0.38100
C226        C  0.02247150  0.81895570  0.37890684     0.38100
C227        C  0.00845542  0.68558331  0.60421094     0.38100
C228        C  0.01118591  0.77347851  0.60170037     0.38100
C229        C  0.04978654  0.59630871  0.47202035    -0.19400
C230        C  0.04299240  0.58357636  0.52562388    -0.19400
C231        C  0.05050251  0.91769094  0.46175500    -0.19400
C232        C  0.04948957  0.90570072  0.51614654    -0.19400
C233        C  0.01797297  0.75635096  0.33041566    -0.20500
C234        C  0.01553151  0.81144010  0.32839149    -0.20500
C235        C  0.99329973  0.69307164  0.65215939    -0.20500
C236        C  0.99493057  0.74826424  0.65058107    -0.20500
C237        C  0.03383942  0.67487111  0.39979341    -0.15800
C238        C  0.01357648  0.63359609  0.59077845    -0.15800
C239        C  0.01994254  0.83068970  0.58537890    -0.15800
C240        C  0.02683288  0.87067416  0.39265555    -0.15800
H241        H  0.06257168  0.56908952  0.44928562     0.17100
H242        H  0.04947572  0.54444128  0.54990739     0.17100
H243        H  0.06434298  0.95341575  0.43692566     0.17100
H244        H  0.06232764  0.93067459  0.54084450     0.17100
H245        H  0.01439631  0.73688858  0.29726375     0.15400
H246        H  0.00990715  0.84242598  0.29338713     0.15400
H247        H  0.98262180  0.66203392  0.68533835     0.15400
H248        H  0.98495176  0.76737235  0.68209676     0.15400
H249        H  0.00776185  0.70500982  0.49256696     0.28600
H250        H  0.00236185  0.80243736  0.48936183     0.28600
C251        C  0.52465241  0.96236663  0.35375380    -0.13900
C252        C  0.03198197  0.92056530  0.34835473    -0.29100
H253        H  0.50407628  0.97067310  0.38343224     0.15100
H254        H  0.04808800  0.91506532  0.31337375     0.15700
C255        C  0.04235618  0.64324479  0.35810331    -0.13900
C256        C  0.53633901  0.58316837  0.36833218    -0.29100
H257        H  0.06089189  0.66401737  0.32527105     0.15100
H258        H  0.51628941  0.56009294  0.39809953     0.15700
C259        C  0.01516977  0.53465390  0.64421083    -0.13900
C260        C  0.99746102  0.58345667  0.62878184    -0.29100
H261        H  0.04519410  0.52892201  0.63295256     0.15100
H262        H  0.49188665  0.58925352  0.68142595     0.15700
C263        C  0.00791848  0.91656952  0.62166982    -0.13900
C264        C  0.01936355  0.86388078  0.62749881    -0.29100
H265        H  0.47518773  0.94150197  0.58366538     0.15100
H266        H  0.02551363  0.84194586  0.66732522     0.15700
C267        C  0.36073704  0.59917859  0.02213923    -0.13900
C268        C  0.33992105  0.62814420  0.98287425    -0.29100
H269        H  0.34804412  0.59077938  0.06200086     0.15100
H270        H  0.35034386  0.63412125  0.94210718     0.15700
C271        C  0.09525146  0.87000496  0.99410483    -0.13900
C272        C  0.12925166  0.87803670  0.01742330    -0.29100
H273        H  0.09251713  0.83723982  0.97280509     0.15100
H274        H  0.13274294  0.91318175  0.03536439     0.15700
C275        C  0.09512109  0.63393881  0.97416357    -0.13900
C276        C  0.13162433  0.61678781  0.98868051    -0.29100
H277        H  0.08996696  0.67697991  0.95833717     0.15100
H278        H  0.13716156  0.57335269  0.00110334     0.15700
C279        C  0.37157547  0.86791229  0.00522568    -0.13900
C280        C  0.33729023  0.87723249  0.02860382    -0.29100
H281        H  0.37267570  0.83811964  0.98026136     0.15100
H282        H  0.33498492  0.90991109  0.05009687     0.15700
C283        C  0.54731015  0.96516824  0.23339085    -0.13900
C284        C  0.51095678  0.96031451  0.21618332    -0.29100
H285        H  0.03800955  0.95292570  0.20996635     0.15100
H286        H  0.48213373  0.49024791  0.22908199     0.15700
C287        C  0.97012869  0.53493044  0.79946324    -0.13900
C288        C  0.99409911  0.52032044  0.76349142    -0.29100
H289        H  0.43391633  0.54812328  0.79057917     0.15100
H290        H  0.02447133  0.03987189  0.76401548     0.15700
Zn291      Zn  0.48976545  0.44668387  0.95627655     1.49700
Zn292      Zn  0.94345994  0.46488080  0.05135443     1.49400
Zn293      Zn  0.53651403  0.49475158  0.04016949     1.49100
Zn294      Zn  0.47615616  0.05959425  0.96648579     1.49500
O295        O  0.48793885  0.98972269  0.01228094    -1.82100
O296        O  0.94521402  0.39073434  0.95922826    -0.72300
O297        O  0.95797386  0.45351854  0.12904159    -0.72100
O298        O  0.57201721  0.43860862  0.02408262    -0.71600
O299        O  0.91385137  0.40382527  0.03196452    -0.72300
O300        O  0.54050660  0.40522439  0.96350104    -0.71900
O301        O  0.53069434  0.48480513  0.11980184    -0.72500
O302        O  0.52605633  0.10938482  0.95818766    -0.71900
O303        O  0.90183906  0.06770044  0.01010339    -0.72600
O304        O  0.56626461  0.05674910  0.01296821    -0.72000
O305        O  0.93981251  0.12597437  0.95300849    -0.72500
O306        O  0.46167577  0.04953528  0.89327751    -0.72400
O307        O  0.48559625  0.48236697  0.87886929    -0.72200
C308        C  0.91596286  0.38285334  0.99143265     0.79600
C309        C  0.99019860  0.46354712  0.14919530     0.80100
C310        C  0.57058154  0.40788892  0.99110574     0.79100
C311        C  0.55993528  0.09945480  0.97807393     0.79500
C312        C  0.90683910  0.11228897  0.97631956     0.80600
C313        C  0.47126871  0.01348711  0.86759213     0.79600
N314        N  0.67984754  0.25457753  0.97567543    -0.34100
N315        N  0.74091387  0.33658853  0.97392033    -0.54700
N316        N  0.79375527  0.25966792  0.94723802    -0.34100
N317        N  0.73409913  0.17771731  0.94826521    -0.54700
C318        C  0.66352557  0.28891130  0.00353328     0.29500
C319        C  0.65890926  0.20725159  0.98887008     0.29500
C320        C  0.81399365  0.30705345  0.93227448     0.29500
C321        C  0.81055863  0.22412581  0.92164103     0.29500
C322        C  0.71107679  0.36556442  0.98789153     0.38100
C323        C  0.77385155  0.36669312  0.97393992     0.38100
C324        C  0.70214458  0.14476069  0.95354409     0.38100
C325        C  0.76554433  0.14655422  0.94394548     0.38100
C326        C  0.63334324  0.26262463  0.03601204    -0.19400
C327        C  0.63043059  0.21112074  0.02683335    -0.19400
C328        C  0.84234162  0.30264994  0.89437210    -0.19400
C329        C  0.84022254  0.24975142  0.88772271    -0.19400
C330        C  0.72486753  0.41534172  0.99593440    -0.20500
C331        C  0.76494550  0.41557607  0.98817735    -0.20500
C332        C  0.71325302  0.09230950  0.95056732    -0.20500
C333        C  0.75358602  0.09320386  0.94572679    -0.20500
C334        C  0.67251273  0.34495021  0.99750733    -0.15800
C335        C  0.66434252  0.16022786  0.96783795    -0.15800
C336        C  0.80426588  0.16753156  0.93626258    -0.15800
C337        C  0.81092191  0.35075041  0.95810136    -0.15800
H338        H  0.61509285  0.27919936  0.06327672     0.17100
H339        H  0.60987717  0.17981700  0.04652182     0.17100
H340        H  0.86368468  0.33344216  0.87589648     0.17100
H341        H  0.85977849  0.23115415  0.86348180     0.17100
H342        H  0.70826512  0.44727681  0.00804066     0.15400
H343        H  0.78470057  0.44867801  0.99125050     0.15400
H344        H  0.69472573  0.05639053  0.95415538     0.15400
H345        H  0.77163593  0.05876799  0.94271803     0.15400
H346        H  0.70062080  0.26500330  0.94499555     0.28600
H347        H  0.77459589  0.24922078  0.97986861     0.28600
N348        N  0.47454286  0.98252145  0.68413555    -0.01000
C349        C  0.45997018  0.97973830  0.73387415     0.01600
C350        C  0.44525051  0.43687332  0.75231582    -0.21300
C351        C  0.44420221  0.40489358  0.71560057    -0.21500
C352        C  0.46289474  0.43414381  0.67036169     0.01500
H353        H  0.43644724  0.42397704  0.79356482     0.15300
H354        H  0.43265701  0.36353706  0.72214514     0.15300
N355        N  0.02755814  0.51595201  0.30715993    -0.01000
C356        C  0.03266501  0.51465947  0.25517063     0.01600
C357        C  0.04605399  0.06710360  0.22562087    -0.21300
C358        C  0.04852948  0.10059175  0.26061764    -0.21500
C359        C  0.03663623  0.07002718  0.30981935     0.01500
H360        H  0.05053216  0.07914484  0.18317291     0.15300
H361        H  0.05576184  0.14369337  0.24972928     0.15300
N362        N  0.51090832  0.16107205  0.50153264    -0.34100
N363        N  0.52465364  0.26141055  0.41969064    -0.54700
N364        N  0.50277748  0.32978160  0.49323634    -0.34100
N365        N  0.49409726  0.22813783  0.57731179    -0.54700
C366        C  0.52871028  0.13998071  0.46333053     0.29500
C367        C  0.51021261  0.12186045  0.54672116     0.29500
C368        C  0.52039307  0.36704808  0.45347471     0.29500
C369        C  0.50516962  0.34941352  0.53801594     0.29500
C370        C  0.52730056  0.22304364  0.38985394     0.38100
C371        C  0.52289714  0.31069618  0.38547412     0.38100
C372        C  0.48138608  0.17847918  0.60575378     0.38100
C373        C  0.47998829  0.26665022  0.60245098     0.38100
C374        C  0.54005361  0.08710033  0.48458422    -0.19400
C375        C  0.52754207  0.07515517  0.53644183    -0.19400
C376        C  0.53447895  0.41048221  0.47341278    -0.19400
C377        C  0.52511152  0.39925030  0.52662687    -0.19400
C378        C  0.52695770  0.24822995  0.33664871    -0.20500
C379        C  0.52411908  0.30338325  0.33389639    -0.20500
C380        C  0.45954837  0.18575620  0.64936416    -0.20500
C381        C  0.45856706  0.24107719  0.64722145    -0.20500
C382        C  0.53288881  0.16601823  0.40923055    -0.15800
C383        C  0.49102214  0.12642040  0.59481396    -0.15800
C384        C  0.48860720  0.32406673  0.58821337    -0.15800
C385        C  0.52415012  0.36244177  0.39984509    -0.15800
H386        H  0.55522617  0.05910036  0.46493407     0.17100
H387        H  0.53096769  0.03573721  0.56211043     0.17100
H388        H  0.55094904  0.44589654  0.45239601     0.17100
H389        H  0.53315195  0.42453459  0.55386786     0.17100
H390        H  0.52889851  0.22894642  0.30306691     0.15400
H391        H  0.52360329  0.33455999  0.29784036     0.15400
H392        H  0.44605636  0.15451763  0.68014229     0.15400
H393        H  0.44368856  0.26012263  0.67572413     0.15400
H394        H  0.49593013  0.19768381  0.49542397     0.28600
H395        H  0.48706145  0.29507783  0.48925528     0.28600
C396        C  0.02081492  0.46989261  0.35120244    -0.13900
C397        C  0.53590614  0.41161145  0.35729087    -0.29100
H398        H  0.00294443  0.47541652  0.38476536     0.15100
H399        H  0.55783188  0.40509674  0.32843257     0.15700
C400        C  0.54786000  0.13413055  0.37031342    -0.13900
C401        C  0.03076945  0.09445609  0.35711931    -0.29100
H402        H  0.57088018  0.15439798  0.34364633     0.15100
H403        H  0.01170882  0.07342483  0.38925383     0.15700
C404        C  0.49477676  0.02948061  0.65201879    -0.13900
C405        C  0.47480276  0.07541501  0.63161853    -0.29100
H406        H  0.52618726  0.02790281  0.64641731     0.15100
H407        H  0.97133157  0.08388619  0.64307261     0.15700
C408        C  0.47185262  0.40974182  0.62350684    -0.13900
C409        C  0.48251224  0.35654146  0.63060437    -0.29100
H410        H  0.99432939  0.44198298  0.58145374     0.15100
H411        H  0.48592191  0.33421825  0.67104483     0.15700
C412        C  0.87341219  0.14866758  0.96314759    -0.13900
C413        C  0.83890960  0.13098167  0.94732409    -0.29100
H414        H  0.87788931  0.19093048  0.96568195     0.15100
H415        H  0.83566547  0.08812974  0.94611025     0.15700
C416        C  0.60472857  0.37522808  0.98376275    -0.13900
C417        C  0.63981727  0.38149289  0.00495626    -0.29100
H418        H  0.60114233  0.34539849  0.95920797     0.15100
H419        H  0.64442324  0.41352147  0.02666666     0.15700
C420        C  0.59343963  0.13742580  0.96121178    -0.13900
C421        C  0.63062369  0.12101205  0.97239873    -0.29100
H422        H  0.58772800  0.17956907  0.94228965     0.15100
H423        H  0.63601840  0.07818208  0.98876202     0.15700
C424        C  0.88172329  0.35301897  0.97896180    -0.13900
C425        C  0.84727714  0.37902614  0.96958045    -0.29100
H426        H  0.88517428  0.31080057  0.97590980     0.15100
H427        H  0.84564837  0.42118703  0.97366361     0.15700
C428        C  0.02567499  0.46847365  0.22942696    -0.13900
C429        C  0.99128365  0.46552350  0.20588472    -0.29100
H430        H  0.56563222  0.45687852  0.20793433     0.15100
H431        H  0.96197263  0.01543062  0.21346006     0.15700
C432        C  0.45646784  0.01749203  0.81373316    -0.13900
C433        C  0.47827268  0.00554782  0.77405234    -0.29100
H434        H  0.93699513  0.02268377  0.78902303     0.15100
H435        H  0.51538826  0.50559452  0.77174965     0.15700
Zn436      Zn  0.48888680  0.93605812  0.96815355     1.49700
Zn437      Zn  0.93728842  0.00586155  0.03940621     1.49400
Zn438      Zn  0.53603642  0.99170970  0.04717789     1.49100
Zn439      Zn  0.47841170  0.57242982  0.95702478     1.49500
O440        O  0.48825750  0.49942756  0.00196102    -1.82100
O441        O  0.93503451  0.90157128  0.97807041    -0.72300
O442        O  0.95030665  0.00183002  0.11676554    -0.72100
O443        O  0.56822638  0.93151120  0.03683676    -0.71600
O444        O  0.90433406  0.94187172  0.03571245    -0.72300
O445        O  0.53635275  0.88734857  0.98429674    -0.71900
O446        O  0.53090552  0.98474630  0.12574400    -0.72500
O447        O  0.52854592  0.62085657  0.95886037    -0.71900
O448        O  0.90287883  0.52111468  0.04111109    -0.72600
O449        O  0.56610633  0.56128127  0.01144097    -0.72000
O450        O  0.92489243  0.59204889  0.98000781    -0.72500
O451        O  0.47070496  0.56817255  0.87957440    -0.72400
O452        O  0.48936582  0.97071047  0.88953563    -0.72200
C453        C  0.90599684  0.90523496  0.00871038     0.79600
C454        C  0.98239517  0.99173154  0.14096702     0.80100
C455        C  0.56600193  0.89350006  0.01171217     0.79100
C456        C  0.56153907  0.60704060  0.98025911     0.79500
C457        C  0.89796656  0.56785027  0.01194064     0.80600
C458        C  0.47544361  0.52974147  0.85488770     0.79600
N459        N  0.67905604  0.74205075  0.02004917    -0.34100
N460        N  0.73587468  0.81863052  0.04338933    -0.54700
N461        N  0.79392410  0.74525038  0.01769154    -0.34100
N462        N  0.73676666  0.66895355  0.99653047    -0.54700
C463        C  0.65901752  0.77249774  0.04820329     0.29500
C464        C  0.65868598  0.69498134  0.02456459     0.29500
C465        C  0.81378040  0.77821628  0.04325062     0.29500
C466        C  0.81527144  0.69967591  0.02076570     0.29500
C467        C  0.70402626  0.85026057  0.03760092     0.38100
C468        C  0.76719789  0.85259636  0.03592893     0.38100
C469        C  0.70510769  0.64634145  0.97869082     0.38100
C470        C  0.76890545  0.64769081  0.97788110     0.38100
C471        C  0.62667903  0.74365488  0.07325090    -0.19400
C472        C  0.62659758  0.69416684  0.05856689    -0.19400
C473        C  0.84706348  0.75264336  0.06491827    -0.19400
C474        C  0.84851464  0.70355584  0.04989158    -0.19400
C475        C  0.71497515  0.90503328  0.02732263    -0.20500
C476        C  0.75535595  0.90652335  0.02633710    -0.20500
C477        C  0.71712425  0.60957700  0.94864396    -0.20500
C478        C  0.75770437  0.61033181  0.94824888    -0.20500
C479        C  0.66573036  0.82861485  0.04296702    -0.15800
C480        C  0.66611730  0.65667013  0.99316541    -0.15800
C481        C  0.80743785  0.65847906  0.99247926    -0.15800
C482        C  0.80583643  0.83387279  0.03929521    -0.15800
H483        H  0.60448190  0.75800081  0.09723313     0.17100
H484        H  0.60452962  0.66227512  0.06983969     0.17100
H485        H  0.86921907  0.76909869  0.08666208     0.17100
H486        H  0.87235947  0.67545470  0.05853838     0.17100
H487        H  0.69606907  0.94008128  0.02084502     0.15400
H488        H  0.77369581  0.94295378  0.01890558     0.15400
H489        H  0.69871937  0.58419833  0.92994295     0.15400
H490        H  0.77666721  0.58549085  0.92938813     0.15400
H491        H  0.70122209  0.75643898  0.99206487     0.28600
H492        H  0.77081300  0.75710162  0.99236655     0.28600
N493        N  0.47447899  0.48443607  0.67757022    -0.01000
C494        C  0.46471833  0.48490333  0.72901273     0.01600
C495        C  0.43557360  0.93443291  0.74887539    -0.21300
C496        C  0.43639004  0.90730243  0.70813406    -0.21500
C497        C  0.46119368  0.93672134  0.66906871     0.01500
H498        H  0.42203800  0.91940101  0.78750054     0.15300
H499        H  0.42227509  0.86835320  0.70841445     0.15300
N500        N  0.02755247  0.01773288  0.30602333    -0.01000
C501        C  0.03242236  0.01721518  0.25382419     0.01600
C502        C  0.04148591  0.56596288  0.22540273    -0.21300
C503        C  0.04112279  0.60076806  0.25946019    -0.21500
C504        C  0.03232680  0.56953739  0.30949549     0.01500
H505        H  0.04596801  0.57720757  0.18292361     0.15300
H506        H  0.04523168  0.64459888  0.24795844     0.15300
N507        N  0.51093827  0.66222307  0.50193838    -0.34100
N508        N  0.52361835  0.76150627  0.42024651    -0.54700
N509        N  0.50412270  0.83174264  0.49335648    -0.34100
N510        N  0.49679290  0.73242245  0.57702306    -0.54700
C511        C  0.53073440  0.64263406  0.46433977     0.29500
C512        C  0.51664925  0.62741424  0.54878684     0.29500
C513        C  0.52290039  0.86735193  0.45363206     0.29500
C514        C  0.50709585  0.85191417  0.53769902     0.29500
C515        C  0.52353735  0.72292430  0.39053658     0.38100
C516        C  0.52120010  0.81069790  0.38612794     0.38100
C517        C  0.48497599  0.68268298  0.60583626     0.38100
C518        C  0.48068187  0.77058639  0.60091816     0.38100
C519        C  0.54968200  0.59517763  0.48752433    -0.19400
C520        C  0.54108816  0.58584437  0.54093338    -0.19400
C521        C  0.53857008  0.91014055  0.47320608    -0.19400
C522        C  0.52870409  0.90029717  0.52626710    -0.19400
C523        C  0.52029740  0.74782140  0.33755404    -0.20500
C524        C  0.51895200  0.80318160  0.33477570    -0.20500
C525        C  0.46076860  0.68944949  0.64748715    -0.20500
C526        C  0.45797801  0.74475247  0.64433007    -0.20500
C527        C  0.53135873  0.66654287  0.40972250    -0.15800
C528        C  0.49824336  0.63142920  0.59733350    -0.15800
C529        C  0.48956300  0.82779976  0.58733349    -0.15800
C530        C  0.52525779  0.86229332  0.40017739    -0.15800
H531        H  0.56836364  0.57033778  0.46829022     0.17100
H532        H  0.55196957  0.55244401  0.57051955     0.17100
H533        H  0.55608874  0.94436625  0.45194733     0.17100
H534        H  0.53754445  0.92530574  0.55337252     0.17100
H535        H  0.51998252  0.72826647  0.30410969     0.15400
H536        H  0.51733657  0.83439690  0.29886465     0.15400
H537        H  0.44655978  0.65794598  0.67731052     0.15400
H538        H  0.44123094  0.76357306  0.67137748     0.15400
H539        H  0.49151680  0.69465103  0.49524230     0.28600
H540        H  0.48714530  0.79805514  0.48946644     0.28600
C541        C  0.01863308  0.97126035  0.34915020    -0.13900
C542        C  0.53745897  0.91066039  0.35740652    -0.29100
H543        H  0.00329934  0.97810755  0.38422612     0.15100
H544        H  0.55856297  0.90295870  0.32810857     0.15700
C545        C  0.54656680  0.63521014  0.37050686    -0.13900
C546        C  0.02682091  0.59353381  0.35698154    -0.29100
H547        H  0.56583765  0.65860425  0.34018775     0.15100
H548        H  0.00829876  0.57201130  0.38950448     0.15700
C549        C  0.48658019  0.53015081  0.63514044    -0.13900
C550        C  0.49313243  0.58173140  0.64193816    -0.29100
H551        H  0.48601893  0.52360402  0.59513278     0.15100
H552        H  0.96806534  0.58683583  0.64440959     0.15700
C553        C  0.47465594  0.91465617  0.62250513    -0.13900
C554        C  0.48252257  0.86042960  0.62937691    -0.29100
H555        H  0.00165768  0.94156409  0.58321767     0.15100
H556        H  0.48205445  0.83705150  0.66986187     0.15700
C557        C  0.86000175  0.59323158  0.01825011    -0.13900
C558        C  0.84117149  0.62626476  0.97929824    -0.29100
H559        H  0.84654236  0.58400372  0.05765603     0.15100
H560        H  0.85245187  0.63373765  0.93882964     0.15700
C561        C  0.59923111  0.85674145  0.01435729    -0.13900
C562        C  0.63180476  0.86497991  0.04048771    -0.29100
H563        H  0.59741099  0.82333703  0.99373347     0.15100
H564        H  0.63436828  0.90022054  0.05848019     0.15700
C565        C  0.59623433  0.64382620  0.97079066    -0.13900
C566        C  0.63258920  0.62316917  0.98123107    -0.29100
H567        H  0.59183478  0.68768961  0.96155565     0.15100
H568        H  0.63696891  0.57941596  0.98691154     0.15700
C569        C  0.87284616  0.86718714  0.01148849    -0.13900
C570        C  0.83907351  0.87287441  0.03760229    -0.29100
H571        H  0.87569531  0.83487934  0.98961366     0.15100
H572        H  0.83525591  0.90748521  0.05623323     0.15700
C573        C  0.01634565  0.97705764  0.22562315    -0.13900
C574        C  0.98359092  0.99087228  0.19820252    -0.29100
H575        H  0.57165267  0.95739484  0.20844505     0.15100
H576        H  0.96505457  0.47968833  0.22290924     0.15700
C577        C  0.46418220  0.53739008  0.79886697    -0.13900
C578        C  0.48498109  0.51570636  0.76387303    -0.29100
H579        H  0.93921730  0.54003650  0.79114429     0.15100
H580        H  0.50989081  0.00397150  0.77694091     0.15700
loop_ 
_geom_bond_atom_site_label_1 
_geom_bond_atom_site_label_2 
_geom_bond_distance 
_geom_bond_site_symmetry_2 
_ccdc_geom_bond_type 
Zn1          O10   2.033   1_655  S
Zn1          O17   2.022       .  S
Zn1         O296   2.023       .  S
Zn1         O150   1.949   1_556  S
Zn2           O7   2.039       .  S
Zn2           O9   1.954       .  S
Zn2         O158   1.951       .  S
Zn2         O440   1.946       .  S
Zn3           O8   1.958       .  S
Zn3          O11   2.002       .  S
Zn3         O159   1.960       .  S
Zn3         O150   1.925   1_455  S
Zn4          O12   2.044   1_655  S
Zn4          O16   2.026       .  S
Zn4         O305   2.037       .  S
Zn4           O5   1.976       .  S
O5         Zn146   1.946   1_545  S
O5         Zn437   1.950   1_556  S
O5         Zn148   1.932   1_646  S
O6         Zn291   2.024       .  S
O6           C18   1.275   1_556  A
O7           C19   1.272       .  A
O8           C20   1.266       .  A
O9           C18   1.269       .  A
O10          C20   1.274   1_556  A
O11         C309   1.273   1_455  A
O12          C21   1.277       .  A
O13        Zn147   1.941   1_545  S
O13          C22   1.263       .  A
O14        Zn148   1.973   1_545  S
O14          C21   1.269   1_554  A
O15        Zn294   2.044       .  S
O15          C22   1.279   1_556  A
O16          C23   1.271       .  A
O17         C168   1.274       .  A
C18         C134   1.461       .  S
C19         O301   1.274       .  A
C19         C139   1.487       .  S
C20         C126   1.465       .  S
C21         C130   1.471       .  S
C22         C122   1.458       .  S
C23         O162   1.272   1_545  A
C23         C142   1.463       .  S
N24          C29   1.348       .  A
N24          C28   1.348       .  A
N24          H56   1.043   1_554  S
N25          C32   1.345       .  A
N25          C33   1.346       .  A
N26          C31   1.348       .  A
N26          C30   1.347       .  A
N26          H57   1.043       .  S
N27          C34   1.348       .  A
N27          C35   1.347       .  A
C28          C36   1.386       .  A
C28          C44   1.405       .  A
C29          C45   1.406       .  A
C29          C37   1.386       .  A
C30          C38   1.381       .  A
C30          C47   1.401       .  A
C31          C46   1.411       .  A
C31          C39   1.394       .  A
C32          C44   1.407       .  A
C32          C40   1.387       .  A
C33          C47   1.406       .  A
C33          C41   1.386       .  A
C34          C42   1.386   1_554  A
C34          C45   1.409       .  A
C35          C43   1.387   1_554  A
C35          C46   1.411       .  A
C36          C37   1.371       .  A
C36          H48   1.082       .  S
C37          H49   1.082       .  S
C38          C39   1.364       .  A
C38          H50   1.083       .  S
C39          H51   1.077       .  S
C40          C41   1.383       .  A
C40          H52   1.082       .  S
C41          H53   1.082       .  S
C42          C43   1.385       .  A
C42          H54   1.082       .  S
C43          H55   1.082       .  S
C44         C127   1.480       .  S
C45         C131   1.485   1_554  S
C46         C123   1.477       .  S
C47         C135   1.481       .  S
N58          C59   1.355   1_455  A
N58         C207   1.365   1_455  A
N58         C114   1.445   1_565  S
C59         C143   1.477   1_565  S
C59         C205   1.383       .  A
C60          C61   1.371       .  A
C60         C204   1.383       .  A
C60          H63   1.083       .  S
C61          C62   1.384       .  A
C61          H64   1.083       .  S
C62         C118   1.488       .  S
C62         N203   1.363       .  A
N65          C66   1.364       .  A
N65         C214   1.369       .  A
N65         C106   1.454       .  S
C66         C138   1.479       .  S
C66         C212   1.375       .  A
C67          C68   1.366       .  A
C67         C211   1.376       .  A
C67          H70   1.083       .  S
C68          C69   1.389       .  A
C68          H71   1.081       .  S
C69         C111   1.496       .  S
C69         N210   1.368       .  A
N72          C77   1.355       .  A
N72          C76   1.353       .  A
N72         H104   1.040       .  S
N73          C80   1.356       .  A
N73          C81   1.357       .  A
N74          C79   1.354       .  A
N74          C78   1.356       .  A
N74         H105   1.042       .  S
N75          C82   1.363       .  A
N75          C83   1.361       .  A
C76          C84   1.383       .  A
C76          C92   1.414       .  A
C77          C93   1.421       .  A
C77          C85   1.391       .  A
C78          C86   1.386       .  A
C78          C95   1.417       .  A
C79          C94   1.418       .  A
C79          C87   1.388       .  A
C80          C92   1.422       .  A
C80          C88   1.388       .  A
C81          C95   1.420       .  A
C81          C89   1.386       .  A
C82          C90   1.386   1_455  A
C82          C93   1.431       .  A
C83          C91   1.389   1_455  A
C83          C94   1.432       .  A
C84          C85   1.368       .  A
C84          H96   1.081       .  S
C85          H97   1.074       .  S
C86          C87   1.376       .  A
C86          H98   1.082       .  S
C87          H99   1.082       .  S
C88          C89   1.373       .  A
C88         H100   1.082       .  S
C89         H101   1.082       .  S
C90          C91   1.375       .  A
C90         H102   1.082       .  S
C91         H103   1.081       .  S
C92         C110   1.496       .  S
C93         C115   1.509       .  S
C94         C119   1.510       .  S
C95         C107   1.502       .  S
C106        H108   1.085       .  S
C106        C397   1.357       .  D
C107        H109   1.084       .  S
C107        C396   1.353       .  D
C110        H112   1.083       .  S
C110        C401   1.358       .  D
C111        H113   1.085       .  S
C111        C400   1.358       .  D
C114        H116   1.082       .  S
C114        C115   1.354       .  D
C115        H407   1.086   1_455  S
H117        C405   1.086       .  S
C118        H410   1.084       .  S
C118        C119   1.359   1_655  D
C119        H121   1.086       .  S
H120        C408   1.084       .  S
C122        H124   1.088       .  S
C122        C123   1.335       .  D
C123        H125   1.086   1_554  S
C126        H128   1.087   1_554  S
C126        C127   1.351       .  D
C127        H129   1.087       .  S
C130        H132   1.087       .  S
C130        C131   1.353       .  D
C131        H133   1.087   1_556  S
C134        H136   1.087   1_554  S
C134        C135   1.353       .  D
C135        H137   1.087       .  S
C138        H430   1.087       .  S
C138        C139   1.346       .  D
C139        H286   1.087       .  S
H140        C428   1.087       .  S
H141        C284   1.087       .  S
C142        H434   1.088       .  S
C142        C143   1.338       .  D
C143        H290   1.086   1_655  S
H144        C432   1.087       .  S
H145        C288   1.086   1_455  S
Zn146       O441   2.020       .  S
Zn146       O155   2.048   1_655  S
Zn146       O162   1.998       .  S
Zn147       O152   2.034       .  S
Zn147       O154   1.977       .  S
Zn147       O295   1.940       .  S
Zn148       O153   1.966       .  S
Zn148       O156   2.003       .  S
Zn149       O157   2.081   1_655  S
Zn149       O450   2.072       .  S
Zn149       O161   2.018       .  S
Zn149       O150   1.969   1_556  S
O150       Zn292   1.944       .  S
O151       Zn436   2.026       .  S
O151        C163   1.276   1_556  A
O152        C164   1.272       .  A
O153        C165   1.266   1_554  A
O154        C163   1.270       .  A
O155        C165   1.276       .  A
O156        C454   1.273   1_455  A
O157        C166   1.283       .  A
O158        C167   1.263       .  A
O159        C166   1.268   1_554  A
O160       Zn439   2.086       .  S
O160        C167   1.282   1_556  A
O161        C168   1.270       .  A
C163        C279   1.466       .  S
C164        O446   1.274       .  A
C164        C284   1.481       .  S
C165        C271   1.473       .  S
C166        C275   1.479       .  S
C167        C267   1.472       .  S
C168        C287   1.471       .  S
N169        C174   1.350       .  A
N169        C173   1.350       .  A
N169        H201   1.043   1_554  S
N170        C177   1.348       .  A
N170        C178   1.349       .  A
N171        C176   1.350       .  A
N171        C175   1.349       .  A
N171        H202   1.043   1_554  S
N172        C179   1.350       .  A
N172        C180   1.352       .  A
C173        C181   1.385       .  A
C173        C189   1.406       .  A
C174        C190   1.411   1_554  A
C174        C182   1.388       .  A
C175        C183   1.383       .  A
C175        C192   1.406       .  A
C176        C191   1.411   1_554  A
C176        C184   1.391       .  A
C177        C189   1.411       .  A
C177        C185   1.388       .  A
C178        C192   1.409       .  A
C178        C186   1.386       .  A
C179        C187   1.387       .  A
C179        C190   1.417       .  A
C180        C188   1.386       .  A
C180        C191   1.416       .  A
C181        C182   1.371       .  A
C181        H193   1.082       .  S
C182        H194   1.082       .  S
C183        C184   1.364       .  A
C183        H195   1.083       .  S
C184        H196   1.078       .  S
C185        C186   1.383       .  A
C185        H197   1.082   1_554  S
C186        H198   1.082       .  S
C187        C188   1.386       .  A
C187        H199   1.082       .  S
C188        H200   1.082       .  S
C189        C272   1.488       .  S
C190        C276   1.493       .  S
C191        C268   1.489       .  S
C192        C280   1.489       .  S
N203        C204   1.356       .  A
N203        C259   1.447   1_655  S
C204        C288   1.475       .  S
C205        C206   1.367       .  A
C205        H208   1.083       .  S
C206        C207   1.384       .  A
C206        H209   1.082       .  S
C207        C263   1.488   1_655  S
N210        C211   1.362       .  A
N210        C251   1.453   1_545  S
C211        C283   1.474   1_545  S
C212        C213   1.366       .  A
C212        H215   1.083       .  S
C213        C214   1.392       .  A
C213        H216   1.079       .  S
C214        C256   1.502       .  S
N217        C222   1.357       .  A
N217        C221   1.352       .  A
N217        H249   1.040       .  S
N218        C225   1.356       .  A
N218        C226   1.360       .  A
N219        C224   1.354       .  A
N219        C223   1.358       .  A
N219        H250   1.042       .  S
N220        C227   1.364       .  A
N220        C228   1.359       .  A
C221        C229   1.385       .  A
C221        C237   1.416       .  A
C222        C238   1.420       .  A
C222        C230   1.389       .  A
C223        C231   1.386       .  A
C223        C240   1.418       .  A
C224        C239   1.418       .  A
C224        C232   1.388       .  A
C225        C237   1.424       .  A
C225        C233   1.388       .  A
C226        C240   1.422       .  A
C226        C234   1.386       .  A
C227        C235   1.385   1_455  A
C227        C238   1.430       .  A
C228        C236   1.390   1_455  A
C228        C239   1.431       .  A
C229        C230   1.370       .  A
C229        H241   1.081       .  S
C230        H242   1.074       .  S
C231        C232   1.375       .  A
C231        H243   1.082       .  S
C232        H244   1.082       .  S
C233        C234   1.373       .  A
C233        H245   1.082       .  S
C234        H246   1.082       .  S
C235        C236   1.375       .  A
C235        H247   1.082       .  S
C236        H248   1.082       .  S
C237        C255   1.495       .  S
C238        C260   1.511   1_455  S
C239        C264   1.506       .  S
C240        C252   1.511       .  S
C251        H253   1.085       .  S
C251        C542   1.357       .  D
C252        H254   1.085       .  S
C252        C541   1.358       .  D
C255        H257   1.085       .  S
C255        C546   1.355       .  D
C256        H258   1.085       .  S
C256        C545   1.359       .  D
C259        H261   1.081       .  S
C259        C260   1.356   1_455  D
C260        H552   1.087       .  S
H262        C550   1.079       .  S
C263        H555   1.084       .  S
C263        C264   1.359       .  D
C264        H266   1.086       .  S
H265        C553   1.084       .  S
C267        H269   1.088       .  S
C267        C268   1.339   1_554  D
C268        H270   1.086       .  S
C271        H273   1.087       .  S
C271        C272   1.354   1_556  D
C272        H274   1.086       .  S
C275        H277   1.086       .  S
C275        C276   1.359       .  D
C276        H278   1.087   1_556  S
C279        H281   1.087   1_554  S
C279        C280   1.353       .  D
C280        H282   1.086       .  S
C283        H575   1.087       .  S
C283        C284   1.343       .  D
H285        C573   1.086       .  S
C287        H579   1.087       .  S
C287        C288   1.339       .  D
H289        C577   1.087       .  S
Zn291       O300   2.024       .  S
Zn291       O307   2.021       .  S
Zn291       O440   1.953   1_556  S
Zn292       O297   2.043       .  S
Zn292       O299   1.983       .  S
Zn292       O448   1.970       .  S
Zn293       O298   1.973       .  S
Zn293       O301   2.029       .  S
Zn293       O449   1.938       .  S
Zn293       O440   1.934       .  S
Zn294       O302   2.083       .  S
Zn294       O306   2.036       .  S
Zn294       O295   1.945   1_546  S
O295       Zn436   1.942   1_554  S
O295       Zn438   1.899       .  S
O296        C308   1.275       .  A
O297        C309   1.275       .  A
O298        C310   1.267   1_554  A
O299        C308   1.271   1_554  A
O300        C310   1.274       .  A
O302        C311   1.283       .  A
O303       Zn437   2.006       .  S
O303        C312   1.271   1_554  A
O304       Zn438   1.954   1_545  S
O304        C311   1.268   1_554  A
O305        C312   1.276       .  A
O306        C313   1.272       .  A
O307        C458   1.272       .  A
C308        C424   1.461       .  S
C309        C429   1.480       .  S
C310        C416   1.465       .  S
C311        C420   1.479       .  S
C312        C412   1.470       .  S
C313        O452   1.274   1_545  A
C313        C432   1.477       .  S
N314        C319   1.354       .  A
N314        C318   1.353   1_556  A
N314        H346   1.043       .  S
N315        C322   1.346       .  A
N315        C323   1.349       .  A
N316        C321   1.345       .  A
N316        C320   1.346       .  A
N316        H347   1.044       .  S
N317        C324   1.349       .  A
N317        C325   1.352       .  A
C318        C326   1.385       .  A
C318        C334   1.409   1_554  A
C319        C335   1.412       .  A
C319        C327   1.388   1_556  A
C320        C328   1.387       .  A
C320        C337   1.403       .  A
C321        C336   1.400       .  A
C321        C329   1.386       .  A
C322        C334   1.409       .  A
C322        C330   1.387       .  A
C323        C337   1.412       .  A
C323        C331   1.387       .  A
C324        C332   1.389       .  A
C324        C335   1.418       .  A
C325        C333   1.385       .  A
C325        C336   1.414       .  A
C326        C327   1.364       .  A
C326        H338   1.083       .  S
C327        H339   1.082       .  S
C328        C329   1.374       .  A
C328        H340   1.083       .  S
C329        H341   1.083       .  S
C330        C331   1.381       .  A
C330        H342   1.082   1_556  S
C331        H343   1.081       .  S
C332        C333   1.382       .  A
C332        H344   1.081       .  S
C333        H345   1.081       .  S
C334        C417   1.488   1_556  S
C335        C421   1.493       .  S
C336        C413   1.500       .  S
C337        C425   1.491       .  S
N348        C497   1.366       .  A
N348        C349   1.358       .  A
N348        C404   1.447   1_565  S
C349        C433   1.483   1_565  S
C349        C495   1.383       .  A
C350        C494   1.382       .  A
C350        C351   1.369       .  A
C350        H353   1.083       .  S
C351        C352   1.382       .  A
C351        H354   1.082       .  S
C352        C408   1.498       .  S
C352        N493   1.368       .  A
N355        C504   1.365       .  A
N355        C356   1.361       .  A
N355        C396   1.451       .  S
C356        C428   1.473       .  S
C356        C502   1.377       .  A
C357        C501   1.377       .  A
C357        C358   1.363       .  A
C357        H360   1.083       .  S
C358        C359   1.389       .  A
C358        H361   1.081       .  S
C359        C401   1.492       .  S
C359        N500   1.368       .  A
N362        C367   1.357       .  A
N362        C366   1.354       .  A
N362        H394   1.039       .  S
N363        C370   1.358       .  A
N363        C371   1.360       .  A
N364        C369   1.356       .  A
N364        C368   1.358       .  A
N364        H395   1.042       .  S
N365        C372   1.365       .  A
N365        C373   1.361       .  A
C366        C374   1.385       .  A
C366        C382   1.417       .  A
C367        C383   1.422       .  A
C367        C375   1.390       .  A
C368        C376   1.386       .  A
C368        C385   1.421       .  A
C369        C384   1.422       .  A
C369        C377   1.388       .  A
C370        C382   1.426       .  A
C370        C378   1.388       .  A
C371        C385   1.423       .  A
C371        C379   1.386       .  A
C372        C380   1.386       .  A
C372        C383   1.433       .  A
C373        C381   1.388       .  A
C373        C384   1.432       .  A
C374        C375   1.370       .  A
C374        H386   1.081       .  S
C375        H387   1.075       .  S
C376        C377   1.376       .  A
C376        H388   1.082       .  S
C377        H389   1.082       .  S
C378        C379   1.373       .  A
C378        H390   1.082       .  S
C379        H391   1.082       .  S
C380        C381   1.376       .  A
C380        H392   1.082       .  S
C381        H393   1.082       .  S
C382        C400   1.499       .  S
C383        C405   1.513       .  S
C384        C409   1.512       .  S
C385        C397   1.511       .  S
C396        H398   1.086       .  S
C397        H399   1.085       .  S
C400        H402   1.083       .  S
C401        H403   1.085       .  S
C404        H406   1.083       .  S
C404        C405   1.357       .  D
C408        C409   1.361       .  D
C409        H411   1.086       .  S
C412        H414   1.084       .  S
C412        C413   1.358       .  D
C413        H415   1.085       .  S
C416        H418   1.087       .  S
C416        C417   1.352   1_556  D
C417        H419   1.086       .  S
C420        H422   1.086       .  S
C420        C421   1.359       .  D
C421        H423   1.085       .  S
C424        H426   1.085       .  S
C424        C425   1.354       .  D
C425        H427   1.086       .  S
C428        C429   1.345   1_455  D
C429        H576   1.087       .  S
H431        C574   1.087   1_545  S
C432        C433   1.343       .  D
C433        H580   1.086       .  S
H435        C578   1.086       .  S
Zn436       O445   2.038       .  S
Zn436       O452   2.035       .  S
Zn437       O442   2.043       .  S
Zn437       O444   1.970   1_545  S
Zn438       O443   1.937       .  S
Zn438       O446   2.008       .  S
Zn439       O447   2.097       .  S
Zn439       O451   2.053       .  S
Zn439       O440   1.983   1_556  S
O441        C453   1.274   1_556  A
O442        C454   1.276   1_545  A
O443        C455   1.265       .  A
O444        C453   1.268       .  A
O445        C455   1.277   1_556  A
O447        C456   1.286       .  A
O448        C457   1.265       .  A
O449        C456   1.267   1_554  A
O450        C457   1.281   1_556  A
O451        C458   1.274       .  A
C453        C569   1.464       .  S
C454        C574   1.479       .  S
C455        C561   1.464       .  S
C456        C565   1.478       .  S
C457        C557   1.473       .  S
C458        C577   1.482       .  S
N459        C464   1.345       .  A
N459        C463   1.345       .  A
N459        H491   1.043   1_554  S
N460        C467   1.346       .  A
N460        C468   1.346       .  A
N461        C466   1.351       .  A
N461        C465   1.350       .  A
N461        H492   1.043   1_554  S
N462        C469   1.352       .  A
N462        C470   1.351       .  A
C463        C471   1.385       .  A
C463        C479   1.399       .  A
C464        C480   1.406   1_554  A
C464        C472   1.389       .  A
C465        C473   1.382       .  A
C465        C482   1.406       .  A
C466        C481   1.414   1_554  A
C466        C474   1.392       .  A
C467        C479   1.405       .  A
C467        C475   1.387       .  A
C468        C482   1.405       .  A
C468        C476   1.387       .  A
C469        C477   1.387       .  A
C469        C480   1.419       .  A
C470        C478   1.387       .  A
C470        C481   1.418       .  A
C471        C472   1.372       .  A
C471        H483   1.083       .  S
C472        H484   1.082       .  S
C473        C474   1.368       .  A
C473        H485   1.083       .  S
C474        H486   1.079       .  S
C475        C476   1.381       .  A
C475        H487   1.082       .  S
C476        H488   1.082       .  S
C477        C478   1.388       .  A
C477        H489   1.082       .  S
C478        H490   1.082       .  S
C479        C562   1.477       .  S
C480        C566   1.490       .  S
C481        C558   1.490       .  S
C482        C570   1.485       .  S
N493        C494   1.369       .  A
N493        C549   1.457       .  S
C494        C578   1.484       .  S
C495        C496   1.371       .  A
C495        H498   1.083       .  S
C496        C497   1.385       .  A
C496        H499   1.083       .  S
C497        C553   1.496       .  S
N500        C501   1.361       .  A
N500        C541   1.455   1_545  S
C501        C573   1.472   1_545  S
C502        C503   1.366       .  A
C502        H505   1.083       .  S
C503        C504   1.388       .  A
C503        H506   1.081       .  S
C504        C546   1.489       .  S
N507        C512   1.354       .  A
N507        C511   1.353       .  A
N507        H539   1.043       .  S
N508        C515   1.358       .  A
N508        C516   1.359       .  A
N509        C514   1.355       .  A
N509        C513   1.354       .  A
N509        H540   1.043       .  S
N510        C517   1.361       .  A
N510        C518   1.360       .  A
C511        C519   1.386       .  A
C511        C527   1.413       .  A
C512        C528   1.417       .  A
C512        C520   1.388       .  A
C513        C521   1.387       .  A
C513        C530   1.417       .  A
C514        C529   1.416       .  A
C514        C522   1.386       .  A
C515        C527   1.424       .  A
C515        C523   1.388       .  A
C516        C530   1.422       .  A
C516        C524   1.386       .  A
C517        C525   1.386       .  A
C517        C528   1.425       .  A
C518        C526   1.388       .  A
C518        C529   1.429       .  A
C519        C520   1.377       .  A
C519        H531   1.082       .  S
C520        H532   1.082       .  S
C521        C522   1.377       .  A
C521        H533   1.082       .  S
C522        H534   1.081       .  S
C523        C524   1.375       .  A
C523        H535   1.082       .  S
C524        H536   1.082       .  S
C525        C526   1.375       .  A
C525        H537   1.082       .  S
C526        H538   1.082       .  S
C527        C545   1.498       .  S
C528        C550   1.512       .  S
C529        C554   1.511       .  S
C530        C542   1.505       .  S
C541        H543   1.085       .  S
C542        H544   1.084       .  S
C545        H547   1.080       .  S
C546        H548   1.085       .  S
C549        H551   1.083       .  S
C549        C550   1.358       .  D
C553        C554   1.362       .  D
C554        H556   1.086       .  S
C557        H559   1.088       .  S
C557        C558   1.341   1_554  D
C558        H560   1.086       .  S
C561        H563   1.087   1_554  S
C561        C562   1.352       .  D
C562        H564   1.086       .  S
C565        H567   1.086       .  S
C565        C566   1.362       .  D
C566        H568   1.087       .  S
C569        H571   1.087   1_554  S
C569        C570   1.350       .  D
C570        H572   1.086       .  S
C573        C574   1.348   1_455  D
C577        C578   1.346       .  D
