geometry optimzed in LAMMPS
_audit_creation_date              2020-11-30 
_audit_creation_method            'lammps2cif' 
_symmetry_space_group_name_H-M    'P1' 
_symmetry_Int_Tables_number       1 
_symmetry_cell_setting            triclinic 
loop_ 
_symmetry_equiv_pos_as_xyz 
  x,y,z 
_cell_length_a                    29.290705930403963 
_cell_length_b                    29.580514227258575 
_cell_length_c                    40.51743417309406 
_cell_angle_alpha                 90.0733783796332 
_cell_angle_beta                  90.14256247756445 
_cell_angle_gamma                 120.8809405835437 
loop_ 
_atom_site_label 
_atom_site_type_symbol 
_atom_site_fract_x 
_atom_site_fract_y 
_atom_site_fract_z 
_atom_site_charge 
C1          C  0.48109973  0.95250581  0.10395985     0.04670
C2          C  0.48257538  0.95277578  0.13858346    -0.11480
C3          C  0.50464749  0.00051882  0.15604460     0.02170
C4          C  0.52560437  0.04827975  0.13885922    -0.10010
C5          C  0.52453829  0.04851379  0.10423665     0.04660
C6          C  0.50210757  0.00050553  0.08710577    -0.09430
H7          H  0.46683434  0.91605938  0.15195053     0.10260
H8          H  0.54220191  0.08501067  0.15243357     0.07790
H9          H  0.50102256  0.00051950  0.06035089     0.07630
C10         C  0.52057353  0.04804146  0.34983568     0.04670
C11         C  0.52358834  0.04791827  0.31531827    -0.11480
C12         C  0.50561976  0.00049088  0.29812035     0.02170
C13         C  0.48554652  0.95311669  0.31559663    -0.10010
C14         C  0.48181015  0.95288606  0.35009781     0.04660
C15         C  0.49903651  0.00037501  0.36707436    -0.09430
H16         H  0.53954819  0.08458479  0.30185177     0.10260
H17         H  0.47119510  0.91638369  0.30233208     0.07790
H18         H  0.49626924  0.00028839  0.39377262     0.07630
O19         O  0.73841712  0.40796961  0.01482565    -0.80260
C20         C  0.60551014  0.23201107  0.43260571     0.99100
O21         O  0.64619758  0.24061979  0.44855582    -0.69370
O22         O  0.73436866  0.32932019  0.43638654    -0.72970
Al23       Al  0.69629646  0.29651208  0.47580072     1.48980
C24         C  0.76284662  0.37825513  0.43161954     0.94350
O25         O  0.66525779  0.40641997  0.43633658    -0.79190
O26         O  0.58932837  0.33288879  0.01649582    -0.72750
Al27       Al  0.69945672  0.40275510  0.47563432     1.90120
O28         O  0.58429427  0.34596626  0.44991574    -0.71810
O29         O  0.58265575  0.24222867  0.00467686    -0.71660
O30         O  0.58339004  0.25820928  0.43842516    -0.77330
O31         O  0.66299764  0.25863351  0.01521798    -0.75530
O32         O  0.66231697  0.33228846  0.47625469    -1.11660
O33         O  0.75381203  0.34484865  0.00267878    -0.70860
C34         C  0.76471558  0.38541212  0.01910689     0.99860
C35         C  0.61557155  0.38469792  0.43230586     0.96260
Al36       Al  0.59125774  0.29788254  0.47731733     1.55560
O37         O  0.75530828  0.40965456  0.44842905    -0.75480
C38         C  0.61360416  0.23248182  0.02054924     1.00420
C39         C  0.61208234  0.38221073  0.01984986     0.95300
O40         O  0.65211759  0.41212744  0.00261950    -0.80800
C41         C  0.47639439  0.52672039  0.10329345     0.04670
C42         C  0.49636512  0.49986165  0.08567620    -0.11480
C43         C  0.52134704  0.47650014  0.10206073     0.02170
C44         C  0.52389307  0.47819125  0.13670184    -0.10010
C45         C  0.50338671  0.50455153  0.15458883     0.04660
C46         C  0.48053213  0.52959353  0.13776070    -0.09430
H47         H  0.49285770  0.49764013  0.05898360     0.10260
H48         H  0.54278576  0.46013337  0.14974370     0.07790
H49         H  0.46456171  0.54982642  0.15149222     0.07630
C50         C  0.52468022  0.47620560  0.34824290     0.04670
C51         C  0.52680775  0.47914244  0.31373989    -0.11480
C52         C  0.50362097  0.50375760  0.29676332     0.02170
C53         C  0.47899180  0.52632018  0.31447262    -0.10010
C54         C  0.47670342  0.52355952  0.34908912     0.04660
C55         C  0.49912806  0.49787573  0.36563711    -0.09430
H56         H  0.54576172  0.46170522  0.30010285     0.10260
H57         H  0.46184178  0.54598526  0.30133279     0.07790
H58         H  0.49700540  0.49495926  0.39233947     0.07630
O59         O  0.25793574  0.58985118  0.01308948    -0.80260
C60         C  0.39043068  0.76766315  0.43256382     0.99100
O61         O  0.35160813  0.75968764  0.45024174    -0.69370
O62         O  0.26176110  0.67184386  0.43834886    -0.72970
Al63       Al  0.30200426  0.70342229  0.47724356     1.48980
C64         C  0.23514763  0.62340377  0.43147071     0.94350
O65         O  0.33278717  0.59217247  0.43543572    -0.79190
O66         O  0.40961721  0.66768993  0.01483498    -0.72750
Al67       Al  0.29822384  0.59648090  0.47436757     1.90120
O68         O  0.41340035  0.65345264  0.44886620    -0.71810
O69         O  0.41688122  0.75858658  0.00279301    -0.71660
O70         O  0.41154629  0.73996947  0.43649697    -0.77330
O71         O  0.33722076  0.73992676  0.01682607    -0.75530
O72         O  0.33534650  0.66703013  0.47569476    -1.11660
O73         O  0.24550363  0.65549297  0.00410805    -0.70860
C74         C  0.23352488  0.61375725  0.01917018     0.99860
C75         C  0.38240296  0.61365574  0.43192098     0.96260
Al76       Al  0.40645783  0.70173892  0.47572547     1.55560
O77         O  0.24366426  0.59080552  0.44604566    -0.75480
C78         C  0.38697185  0.76742920  0.02038840     1.00420
C79         C  0.38571551  0.61854284  0.01960428     0.95300
O80         O  0.34539347  0.58785658  0.00247225    -0.80800
C81         C  0.04870315  0.52321063  0.10344287     0.04670
C82         C  0.00058075  0.50110289  0.08606151    -0.11480
C83         C  0.95178702  0.47614963  0.10262942     0.02170
C84         C  0.95139594  0.47428186  0.13722732    -0.10010
C85         C  0.99946015  0.49680256  0.15515294     0.04660
C86         C  0.04806911  0.52093829  0.13799522    -0.09430
H87         H  0.00115931  0.50309952  0.05931715     0.10260
H88         H  0.91375404  0.45423561  0.15012969     0.07790
H89         H  0.08535198  0.53915340  0.15146932     0.07630
C90         C  0.04709853  0.52367496  0.35016897     0.04670
C91         C  0.99861492  0.49753813  0.36719553    -0.11480
C92         C  0.95039034  0.46938344  0.34997064     0.02170
C93         C  0.95045345  0.46738433  0.31545309    -0.10010
C94         C  0.99859471  0.49377851  0.29801671     0.04660
C95         C  0.04681947  0.52151881  0.31553740    -0.09430
H96         H  0.99830906  0.49887273  0.39394641     0.10260
H97         H  0.91304470  0.44598009  0.30219661     0.07790
H98         H  0.08400134  0.54262617  0.30220097     0.07630
C99         C  0.02943295  0.47897461  0.20920995     0.25140
C100        C  0.99888495  0.49545310  0.19177578    -0.22970
C101        C  0.96806018  0.51108461  0.20959964     0.20040
C102        C  0.96771714  0.51015695  0.24409873     0.25080
C103        C  0.99841114  0.49389341  0.26147084    -0.22920
C104        C  0.02934188  0.47840871  0.24373764     0.19980
F105        F  0.05858563  0.46160668  0.25988178    -0.12880
F106        F  0.05843916  0.46221832  0.19280640    -0.15240
F107        F  0.93861634  0.52672688  0.26059024    -0.15240
F108        F  0.93948388  0.52883422  0.19363437    -0.12880
C109        C  0.15097327  0.61574803  0.41193111     0.25140
C110        C  0.19091314  0.60340969  0.40769357    -0.22970
C111        C  0.18478627  0.56696104  0.38325923     0.20040
C112        C  0.13883804  0.54243100  0.36366900     0.25080
C113        C  0.09783158  0.55319468  0.36873609    -0.22920
C114        C  0.10463679  0.59060420  0.39276629     0.19980
F115        F  0.06602226  0.60224157  0.39801992    -0.12880
F116        F  0.15537331  0.64969491  0.43606082    -0.15240
F117        F  0.13324679  0.50620774  0.34088601    -0.15240
F118        F  0.22296206  0.55449230  0.37878550    -0.12880
C119        C  0.10883551  0.58984834  0.06270133     0.25140
C120        C  0.09916523  0.54954059  0.08483761    -0.22740
C121        C  0.13547531  0.53193797  0.08680591     0.20040
C122        C  0.17993296  0.55318364  0.06595852     0.25080
C123        C  0.18882701  0.59266138  0.04301217    -0.22920
C124        C  0.15296110  0.61118161  0.04206516     0.19980
F125        F  0.15910962  0.64871881  0.52024152    -0.12880
F126        F  0.07474185  0.60804367  0.06062865    -0.15240
F127        F  0.21373659  0.53468296  0.06800217    -0.15240
F128        F  0.12658883  0.49258614  0.10786019    -0.12880
C129        C  0.37744690  0.55908530  0.38233584     0.25140
C130        C  0.40592538  0.59160686  0.40930295    -0.22970
C131        C  0.45807641  0.60252765  0.41537669     0.20040
C132        C  0.48107609  0.58155883  0.39520207     0.25080
C133        C  0.45259321  0.54851894  0.36857201    -0.22920
C134        C  0.40070040  0.53783170  0.36205630     0.19980
F135        F  0.37189511  0.50543369  0.33677333    -0.12880
F136        F  0.32728409  0.54789199  0.37555787    -0.15240
F137        F  0.53160999  0.59365655  0.40183335    -0.15240
F138        F  0.48669772  0.63230901  0.44163465    -0.12880
C139        C  0.38082456  0.54044902  0.04778801     0.25140
C140        C  0.40604686  0.59569859  0.04420466    -0.22970
C141        C  0.45263806  0.62804281  0.06272929     0.20040
C142        C  0.47444248  0.60560643  0.08311309     0.25080
C143        C  0.45036331  0.55069122  0.08520260    -0.22920
C144        C  0.40307544  0.51838113  0.06785247     0.19980
F145        F  0.37889701  0.46513370  0.06989965    -0.12880
F146        F  0.33531594  0.50726160  0.03117645    -0.15240
F147        F  0.52050633  0.63746215  0.09959464    -0.15240
F148        F  0.47819209  0.68132452  0.06042769    -0.12880
C149        C  0.53580837  0.55149650  0.24315834     0.25140
C150        C  0.50384143  0.50438873  0.26039034    -0.22970
C151        C  0.47219813  0.45744409  0.24275188     0.20040
C152        C  0.47243909  0.45754537  0.20825391     0.25080
C153        C  0.50432263  0.50460599  0.19097675    -0.22920
C154        C  0.53601115  0.55161747  0.20859671     0.19980
F155        F  0.56766556  0.59732667  0.19228024    -0.12880
F156        F  0.56738530  0.59704178  0.25984711    -0.15240
F157        F  0.44066663  0.41197139  0.19163253    -0.15240
F158        F  0.44037406  0.41173476  0.25902942    -0.12880
C159        C  0.60168874  0.45784305  0.03631213     0.25140
C160        C  0.59070400  0.40630022  0.04248665    -0.22970
C161        C  0.55789193  0.37836470  0.06934749     0.20040
C162        C  0.53600693  0.40131989  0.08926989     0.25080
C163        C  0.54635136  0.45243831  0.08253984    -0.22920
C164        C  0.58000624  0.48057860  0.05613531     0.19980
F165        F  0.59215846  0.53053713  0.04945388    -0.12880
F166        F  0.63211783  0.48603772  0.51028692    -0.15240
F167        F  0.50333598  0.37293462  0.11443561    -0.15240
F168        F  0.54697318  0.32892792  0.07635399    -0.12880
C169        C  0.62504417  0.44680044  0.38631805     0.25140
C170        C  0.59258146  0.40539732  0.40806140    -0.22970
C171        C  0.53715323  0.38532614  0.40773681     0.20040
C172        C  0.51531693  0.40738688  0.38740341     0.25080
C173        C  0.54788189  0.44965351  0.36666974    -0.22920
C174        C  0.60274844  0.46859043  0.36571839     0.19980
F175        F  0.63504438  0.50980993  0.34598112    -0.12880
F176        F  0.67841901  0.46708840  0.38543581    -0.15240
F177        F  0.46205540  0.38790761  0.38836388    -0.15240
F178        F  0.50369527  0.34528425  0.42788025    -0.12880
C179        C  0.83665061  0.45484511  0.40126438     0.25140
C180        C  0.80741590  0.40011277  0.40757832    -0.22970
C181        C  0.82417658  0.36789409  0.39269890     0.20040
C182        C  0.87002169  0.39021506  0.37311104     0.25080
C183        C  0.89986397  0.44486436  0.36823585    -0.22920
C184        C  0.88253780  0.47684149  0.38203160     0.19980
F185        F  0.91068558  0.52975161  0.37718883    -0.12880
F186        F  0.82169216  0.48765378  0.41418667    -0.15240
F187        F  0.88647589  0.35877314  0.35992425    -0.15240
F188        F  0.79750643  0.31511888  0.39797479    -0.12880
C189        C  0.89543883  0.41616289  0.05739902     0.25140
C190        C  0.90175783  0.45068058  0.08317810    -0.22970
C191        C  0.86159650  0.46251352  0.08877519     0.20040
C192        C  0.81643961  0.44106362  0.06830082     0.25080
C193        C  0.81071549  0.40719829  0.04207790    -0.22920
C194        C  0.85077950  0.39491797  0.03704144     0.19980
F195        F  0.84794897  0.36364142  0.51157661    -0.12880
F196        F  0.93291655  0.40306925  0.05172653    -0.15240
F197        F  0.77853888  0.45348509  0.07411364    -0.15240
F198        F  0.86698529  0.49627341  0.11328302    -0.12880
C199        C  0.40755441  0.88450392  0.38348598     0.25140
C200        C  0.45702177  0.90288326  0.36854706    -0.22970
C201        C  0.48316174  0.87457258  0.37249693     0.20040
C202        C  0.46095880  0.82940221  0.39236774     0.25080
C203        C  0.41193239  0.81170777  0.40839830    -0.22920
C204        C  0.38493973  0.83926596  0.40292305     0.19980
F205        F  0.33684291  0.82321576  0.41680286    -0.12880
F206        F  0.38127029  0.91088617  0.37946427    -0.15240
F207        F  0.48838542  0.80426429  0.39674448    -0.15240
F208        F  0.53119669  0.89193677  0.35818463    -0.12880
C209        C  0.50717899  0.10894651  0.38599417     0.25140
C210        C  0.54151349  0.09804540  0.36815250    -0.22970
C211        C  0.59653263  0.13374205  0.36939552     0.20040
C212        C  0.61721795  0.17864330  0.38934442     0.25080
C213        C  0.58307539  0.18901048  0.40798582    -0.22920
C214        C  0.52776653  0.15445694  0.40551534     0.19980
F215        F  0.49388571  0.16300046  0.42355230    -0.12880
F216        F  0.45381657  0.07488061  0.38502008    -0.15240
F217        F  0.67077927  0.21155178  0.39093252    -0.15240
F218        F  0.63037268  0.12373579  0.35247811    -0.12880
C219        C  0.48666059  0.89880354  0.05827946     0.25140
C220        C  0.45810299  0.90267345  0.08483910    -0.22970
C221        C  0.40658207  0.86018512  0.09139452     0.20040
C222        C  0.38342704  0.81545348  0.07096124     0.25080
C223        C  0.41154756  0.81245777  0.04373662    -0.22920
C224        C  0.46370042  0.85448897  0.03792178     0.19980
F225        F  0.49208662  0.85395145  0.51161504    -0.12880
F226        F  0.53697048  0.93841727  0.05174020    -0.15240
F227        F  0.33349734  0.77533911  0.07770861    -0.15240
F228        F  0.37780315  0.86287290  0.11672182    -0.12880
C229        C  0.53733257  0.14666503  0.03986753     0.25140
C230        C  0.59043670  0.18793363  0.04413001    -0.22970
C231        C  0.62076820  0.18454637  0.06997511     0.20040
C232        C  0.59880601  0.14013013  0.09050431     0.25080
C233        C  0.54632680  0.09830965  0.08538192    -0.22920
C234        C  0.51561399  0.10260099  0.06028117     0.19980
F235        F  0.46442880  0.06355365  0.05516841    -0.12880
F236        F  0.50673969  0.14761356  0.51493576    -0.15240
F237        F  0.62957222  0.13697957  0.11443271    -0.15240
F238        F  0.67171477  0.22393410  0.07524483    -0.12880
C239        C  0.46740493  0.00626976  0.24442530     0.25140
C240        C  0.50550900  0.00023500  0.26176376    -0.22970
C241        C  0.54331570  0.99414216  0.24425380     0.20040
C242        C  0.54311039  0.99427374  0.20969685     0.25080
C243        C  0.50505084  0.00041858  0.19239024    -0.22920
C244        C  0.46715743  0.00632503  0.20991288     0.19980
F245        F  0.42963168  0.01153175  0.19352009    -0.12880
F246        F  0.43009309  0.01142635  0.26100798    -0.15240
F247        F  0.58033098  0.98904710  0.19306727    -0.15240
F248        F  0.58076082  0.98885345  0.26067398    -0.12880
C249        C  0.48109973  0.95250581  0.60395985     0.04670
C250        C  0.48257538  0.95277578  0.63858346    -0.11480
C251        C  0.50464749  0.00051882  0.65604460     0.02170
C252        C  0.52560436  0.04827975  0.63885922    -0.10010
C253        C  0.52453827  0.04851379  0.60423665     0.04660
C254        C  0.50210756  0.00050553  0.58710577    -0.09430
H255        H  0.46683435  0.91605938  0.65195053     0.10260
H256        H  0.54220190  0.08501067  0.65243357     0.07790
H257        H  0.50102254  0.00051950  0.56035089     0.07630
C258        C  0.52057355  0.04804147  0.84983568     0.04670
C259        C  0.52358836  0.04791828  0.81531827    -0.11480
C260        C  0.50561979  0.00049089  0.79812035     0.02170
C261        C  0.48554655  0.95311670  0.81559663    -0.10010
C262        C  0.48181018  0.95288607  0.85009781     0.04660
C263        C  0.49903654  0.00037502  0.86707436    -0.09430
H264        H  0.53954820  0.08458480  0.80185177     0.10260
H265        H  0.47119513  0.91638370  0.80233209     0.07790
H266        H  0.49626926  0.00028840  0.89377262     0.07630
O267        O  0.73841711  0.40796961  0.51482565    -0.80260
C268        C  0.60551015  0.23201108  0.93260571     0.99100
O269        O  0.64619760  0.24061979  0.94855583    -0.69370
O270        O  0.73436867  0.32932020  0.93638654    -0.72970
Al271      Al  0.69629648  0.29651209  0.97580072     1.48980
C272        C  0.76284663  0.37825514  0.93161954     0.94350
O273        O  0.66525780  0.40641998  0.93633658    -0.79190
O274        O  0.58932836  0.33288879  0.51649582    -0.72750
Al275      Al  0.69945673  0.40275510  0.97563432     1.90120
O276        O  0.58429428  0.34596627  0.94991574    -0.71810
O277        O  0.58265574  0.24222867  0.50467686    -0.71660
O278        O  0.58339006  0.25820928  0.93842516    -0.77330
O279        O  0.66299763  0.25863350  0.51521798    -0.75530
O280        O  0.66231698  0.33228846  0.97625470    -1.11660
O281        O  0.75381202  0.34484864  0.50267878    -0.70860
C282        C  0.76471557  0.38541211  0.51910689     0.99860
C283        C  0.61557155  0.38469793  0.93230586     0.96260
Al284      Al  0.59125775  0.29788254  0.97731733     1.55560
O285        O  0.75530829  0.40965457  0.94842905    -0.75480
C286        C  0.61360414  0.23248181  0.52054924     1.00420
C287        C  0.61208233  0.38221073  0.51984985     0.95300
O288        O  0.65211758  0.41212744  0.50261950    -0.80800
C289        C  0.47639439  0.52672040  0.60329346     0.04670
C290        C  0.49636512  0.49986166  0.58567620    -0.11480
C291        C  0.52134704  0.47650014  0.60206073     0.02170
C292        C  0.52389306  0.47819125  0.63670184    -0.10010
C293        C  0.50338671  0.50455153  0.65458883     0.04660
C294        C  0.48053213  0.52959353  0.63776070    -0.09430
H295        H  0.49285770  0.49764014  0.55898360     0.10260
H296        H  0.54278576  0.46013337  0.64974370     0.07790
H297        H  0.46456171  0.54982642  0.65149222     0.07630
C298        C  0.52468022  0.47620560  0.84824290     0.04670
C299        C  0.52680774  0.47914243  0.81373989    -0.11480
C300        C  0.50362096  0.50375759  0.79676332     0.02170
C301        C  0.47899180  0.52632017  0.81447262    -0.10010
C302        C  0.47670342  0.52355951  0.84908912     0.04660
C303        C  0.49912807  0.49787573  0.86563711    -0.09430
H304        H  0.54576171  0.46170521  0.80010286     0.10260
H305        H  0.46184177  0.54598525  0.80133278     0.07790
H306        H  0.49700540  0.49495927  0.89233947     0.07630
O307        O  0.25793573  0.58985117  0.51308949    -0.80260
C308        C  0.39043069  0.76766315  0.93256382     0.99100
O309        O  0.35160814  0.75968765  0.95024174    -0.69370
O310        O  0.26176111  0.67184387  0.93834885    -0.72970
Al311      Al  0.30200428  0.70342230  0.97724356     1.48980
C312        C  0.23514764  0.62340378  0.93147070     0.94350
O313        O  0.33278718  0.59217247  0.93543572    -0.79190
O314        O  0.40961721  0.66768993  0.51483498    -0.72750
Al315      Al  0.29822384  0.59648090  0.97436757     1.90120
O316        O  0.41340036  0.65345264  0.94886620    -0.71810
O317        O  0.41688121  0.75858657  0.50279301    -0.71660
O318        O  0.41154630  0.73996948  0.93649697    -0.77330
O319        O  0.33722075  0.73992675  0.51682607    -0.75530
O320        O  0.33534651  0.66703013  0.97569476    -1.11660
O321        O  0.24550362  0.65549296  0.50410805    -0.70860
C322        C  0.23352487  0.61375724  0.51917018     0.99860
C323        C  0.38240296  0.61365574  0.93192097     0.96260
Al324      Al  0.40645783  0.70173892  0.97572547     1.55560
O325        O  0.24366427  0.59080553  0.94604566    -0.75480
C326        C  0.38697184  0.76742919  0.52038840     1.00420
C327        C  0.38571550  0.61854284  0.51960428     0.95300
O328        O  0.34539347  0.58785658  0.50247226    -0.80800
C329        C  0.04870314  0.52321061  0.60344287     0.04670
C330        C  0.00058073  0.50110288  0.58606151    -0.11480
C331        C  0.95178701  0.47614961  0.60262942     0.02170
C332        C  0.95139592  0.47428184  0.63722732    -0.10010
C333        C  0.99946013  0.49680254  0.65515294     0.04660
C334        C  0.04806909  0.52093827  0.63799522    -0.09430
H335        H  0.00115930  0.50309951  0.55931715     0.10260
H336        H  0.91375403  0.45423559  0.65012969     0.07790
H337        H  0.08535196  0.53915338  0.65146932     0.07630
C338        C  0.04709854  0.52367498  0.85016897     0.04670
C339        C  0.99861493  0.49753815  0.86719553    -0.11480
C340        C  0.95039035  0.46938347  0.84997064     0.02170
C341        C  0.95045346  0.46738435  0.81545309    -0.10010
C342        C  0.99859471  0.49377852  0.79801671     0.04660
C343        C  0.04681948  0.52151882  0.81553740    -0.09430
H344        H  0.99830908  0.49887276  0.89394641     0.10260
H345        H  0.91304470  0.44598010  0.80219661     0.07790
H346        H  0.08400135  0.54262618  0.80220097     0.07630
C347        C  0.02943294  0.47897459  0.70920995     0.25140
C348        C  0.99888494  0.49545308  0.69177578    -0.22970
C349        C  0.96806017  0.51108459  0.70959964     0.20040
C350        C  0.96771714  0.51015695  0.74409873     0.25080
C351        C  0.99841114  0.49389342  0.76147084    -0.22920
C352        C  0.02934187  0.47840870  0.74373764     0.19980
F353        F  0.05858562  0.46160667  0.75988178    -0.12880
F354        F  0.05843914  0.46221830  0.69280640    -0.15240
F355        F  0.93861635  0.52672688  0.76059024    -0.15240
F356        F  0.93948387  0.52883421  0.69363437    -0.12880
C357        C  0.15097329  0.61574806  0.91193110     0.25140
C358        C  0.19091315  0.60340971  0.90769356    -0.22970
C359        C  0.18478627  0.56696104  0.88325923     0.20040
C360        C  0.13883804  0.54243100  0.86366900     0.25080
C361        C  0.09783159  0.55319470  0.86873608    -0.22920
C362        C  0.10463681  0.59060423  0.89276628     0.19980
F363        F  0.06602230  0.60224162  0.89801990    -0.12880
F364        F  0.15537334  0.64969495  0.93606080    -0.15240
F365        F  0.13324678  0.50620773  0.84088602    -0.15240
F366        F  0.22296206  0.55449228  0.87878551    -0.12880
C367        C  0.10883551  0.58984833  0.56270134     0.25140
C368        C  0.09916522  0.54954058  0.58483761    -0.22740
C369        C  0.13547529  0.53193795  0.58680590     0.20040
C370        C  0.17993295  0.55318362  0.56595852     0.25080
C371        C  0.18882700  0.59266137  0.54301218    -0.22920
C372        C  0.15296109  0.61118160  0.54206517     0.19980
F373        F  0.15910961  0.64871881  0.02024151    -0.12880
F374        F  0.07474185  0.60804367  0.56062866    -0.15240
F375        F  0.21373657  0.53468294  0.56800217    -0.15240
F376        F  0.12658881  0.49258611  0.60786018    -0.12880
C377        C  0.37744690  0.55908529  0.88233584     0.25140
C378        C  0.40592538  0.59160686  0.90930294    -0.22970
C379        C  0.45807642  0.60252767  0.91537668     0.20040
C380        C  0.48107610  0.58155884  0.89520206     0.25080
C381        C  0.45259321  0.54851894  0.86857200    -0.22920
C382        C  0.40070039  0.53783170  0.86205630     0.19980
F383        F  0.37189510  0.50543367  0.83677333    -0.12880
F384        F  0.32728408  0.54789198  0.87555788    -0.15240
F385        F  0.53161000  0.59365657  0.90183334    -0.15240
F386        F  0.48669774  0.63230904  0.94163464    -0.12880
C387        C  0.38082454  0.54044903  0.54778803     0.25140
C388        C  0.40604686  0.59569860  0.54420466    -0.22970
C389        C  0.45263808  0.62804282  0.56272928     0.20040
C390        C  0.47444250  0.60560644  0.58311308     0.25080
C391        C  0.45036331  0.55069123  0.58520261    -0.22920
C392        C  0.40307542  0.51838114  0.56785249     0.19980
F393        F  0.37889697  0.46513370  0.56989969    -0.12880
F394        F  0.33531591  0.50726161  0.53117649    -0.15240
F395        F  0.52050637  0.63746216  0.59959461    -0.15240
F396        F  0.47819213  0.68132453  0.56042766    -0.12880
C397        C  0.53580840  0.55149649  0.74315834     0.25140
C398        C  0.50384143  0.50438872  0.76039034    -0.22970
C399        C  0.47219810  0.45744409  0.74275188     0.20040
C400        C  0.47243905  0.45754537  0.70825391     0.25080
C401        C  0.50432262  0.50460599  0.69097675    -0.22920
C402        C  0.53601118  0.55161745  0.70859671     0.19980
F403        F  0.56766562  0.59732665  0.69228024    -0.12880
F404        F  0.56738536  0.59704175  0.75984711    -0.15240
F405        F  0.44066657  0.41197140  0.69163253    -0.15240
F406        F  0.44037400  0.41173476  0.75902942    -0.12880
C407        C  0.60168873  0.45784305  0.53631212     0.25140
C408        C  0.59070399  0.40630021  0.54248665    -0.22970
C409        C  0.55789192  0.37836470  0.56934748     0.20040
C410        C  0.53600693  0.40131989  0.58926989     0.25080
C411        C  0.54635136  0.45243831  0.58253984    -0.22920
C412        C  0.58000623  0.48057860  0.55613531     0.19980
F413        F  0.59215846  0.53053713  0.54945388    -0.12880
F414        F  0.63211784  0.48603773  0.01028693    -0.15240
F415        F  0.50333598  0.37293462  0.61443561    -0.15240
F416        F  0.54697317  0.32892792  0.57635399    -0.12880
C417        C  0.62504417  0.44680043  0.88631804     0.25140
C418        C  0.59258147  0.40539733  0.90806141    -0.22970
C419        C  0.53715324  0.38532616  0.90773683     0.20040
C420        C  0.51531693  0.40738689  0.88740342     0.25080
C421        C  0.54788189  0.44965351  0.86666974    -0.22920
C422        C  0.60274844  0.46859041  0.86571839     0.19980
F423        F  0.63504438  0.50980990  0.84598110    -0.12880
F424        F  0.67841900  0.46708837  0.88543579    -0.15240
F425        F  0.46205541  0.38790763  0.88836391    -0.15240
F426        F  0.50369528  0.34528428  0.92788028    -0.12880
C427        C  0.83665061  0.45484511  0.90126437     0.25140
C428        C  0.80741591  0.40011278  0.90757833    -0.22970
C429        C  0.82417661  0.36789410  0.89269891     0.20040
C430        C  0.87002172  0.39021508  0.87311106     0.25080
C431        C  0.89986398  0.44486438  0.86823585    -0.22920
C432        C  0.88253780  0.47684150  0.88203159     0.19980
F433        F  0.91068556  0.52975162  0.87718881    -0.12880
F434        F  0.82169214  0.48765378  0.91418664    -0.15240
F435        F  0.88647594  0.35877316  0.85992428    -0.15240
F436        F  0.79750648  0.31511891  0.89797482    -0.12880
C437        C  0.89543882  0.41616289  0.55739901     0.25140
C438        C  0.90175782  0.45068056  0.58317810    -0.22970
C439        C  0.86159648  0.46251350  0.58877519     0.20040
C440        C  0.81643959  0.44106361  0.56830082     0.25080
C441        C  0.81071547  0.40719828  0.54207790    -0.22920
C442        C  0.85077949  0.39491796  0.53704143     0.19980
F443        F  0.84794898  0.36364142  0.01157661    -0.12880
F444        F  0.93291655  0.40306925  0.55172652    -0.15240
F445        F  0.77853886  0.45348507  0.57411364    -0.15240
F446        F  0.86698528  0.49627339  0.61328302    -0.12880
C447        C  0.40755444  0.88450393  0.88348598     0.25140
C448        C  0.45702180  0.90288328  0.86854706    -0.22970
C449        C  0.48316177  0.87457259  0.87249694     0.20040
C450        C  0.46095882  0.82940222  0.89236774     0.25080
C451        C  0.41193241  0.81170778  0.90839830    -0.22920
C452        C  0.38493975  0.83926597  0.90292304     0.19980
F453        F  0.33684293  0.82321577  0.91680286    -0.12880
F454        F  0.38127032  0.91088618  0.87946427    -0.15240
F455        F  0.48838544  0.80426430  0.89674449    -0.15240
F456        F  0.53119672  0.89193678  0.85818464    -0.12880
C457        C  0.50717901  0.10894652  0.88599417     0.25140
C458        C  0.54151351  0.09804541  0.86815250    -0.22970
C459        C  0.59653265  0.13374205  0.86939552     0.20040
C460        C  0.61721797  0.17864330  0.88934443     0.25080
C461        C  0.58307541  0.18901049  0.90798582    -0.22920
C462        C  0.52776655  0.15445695  0.90551534     0.19980
F463        F  0.49388572  0.16300047  0.92355229    -0.12880
F464        F  0.45381659  0.07488063  0.88502007    -0.15240
F465        F  0.67077929  0.21155179  0.89093253    -0.15240
F466        F  0.63037270  0.12373580  0.85247812    -0.12880
C467        C  0.48666057  0.89880355  0.55827945     0.25140
C468        C  0.45810299  0.90267345  0.58483910    -0.22970
C469        C  0.40658207  0.86018511  0.59139453     0.20040
C470        C  0.38342704  0.81545347  0.57096124     0.25080
C471        C  0.41154756  0.81245777  0.54373662    -0.22920
C472        C  0.46370041  0.85448898  0.53792177     0.19980
F473        F  0.49208664  0.85395144  0.01161506    -0.12880
F474        F  0.53697046  0.93841729  0.55174018    -0.15240
F475        F  0.33349734  0.77533910  0.57770862    -0.15240
F476        F  0.37780316  0.86287288  0.61672183    -0.12880
C477        C  0.53733255  0.14666503  0.53986753     0.25140
C478        C  0.59043668  0.18793362  0.54413001    -0.22970
C479        C  0.62076818  0.18454636  0.56997511     0.20040
C480        C  0.59880600  0.14013012  0.59050431     0.25080
C481        C  0.54632678  0.09830965  0.58538192    -0.22920
C482        C  0.51561398  0.10260099  0.56028117     0.19980
F483        F  0.46442878  0.06355365  0.55516842    -0.12880
F484        F  0.50673971  0.14761355  0.01493575    -0.15240
F485        F  0.62957221  0.13697957  0.61443271    -0.15240
F486        F  0.67171476  0.22393409  0.57524483    -0.12880
C487        C  0.46740498  0.00626982  0.74442530     0.25140
C488        C  0.50550902  0.00023501  0.76176376    -0.22970
C489        C  0.54331568  0.99414210  0.74425379     0.20040
C490        C  0.54311036  0.99427367  0.70969685     0.25080
C491        C  0.50505085  0.00041858  0.69239024    -0.22920
C492        C  0.46715748  0.00632510  0.70991288     0.19980
F493        F  0.42963176  0.01153187  0.69352010    -0.12880
F494        F  0.43009318  0.01142648  0.76100798    -0.15240
F495        F  0.58033091  0.98904697  0.69306727    -0.15240
F496        F  0.58076076  0.98885333  0.76067397    -0.12880
loop_ 
_geom_bond_atom_site_label_1 
_geom_bond_atom_site_label_2 
_geom_bond_distance 
_geom_bond_site_symmetry_2 
_ccdc_geom_bond_type 
C1            C2   1.403       .  A
C1            C6   1.403   1_565  A
C1          C220   1.484       .  S
C2            C3   1.404   1_565  A
C2            H7   1.084       .  S
C3            C4   1.404       .  A
C3          C243   1.473       .  S
C4            C5   1.403       .  A
C4            H8   1.084       .  S
C5            C6   1.403       .  A
C5          C233   1.484       .  S
C6            H9   1.084       .  S
C10          C11   1.402       .  A
C10          C15   1.402       .  A
C10         C210   1.476       .  S
C11          C12   1.403       .  A
C11          H16   1.084       .  S
C12          C13   1.403   1_545  A
C12         C240   1.473       .  S
C13          C14   1.402       .  A
C13          H17   1.084       .  S
C14          C15   1.403   1_565  A
C14         C200   1.475       .  S
C15          H18   1.085       .  S
O19          C34   1.263       .  A
O19        Al275   1.912   1_554  S
C20         C213   1.477       .  S
C20          O30   1.262       .  A
C20          O21   1.260       .  A
O21         Al23   1.898       .  S
O22          C24   1.261       .  A
O22         Al23   1.907       .  S
Al23        O279   1.910       .  S
Al23        O281   1.893       .  S
Al23         O32   1.787       .  S
C24         C180   1.487       .  S
C24          O37   1.259       .  A
O25          C35   1.263       .  A
O25         Al27   1.912       .  S
O26          C39   1.262       .  A
O26        Al284   1.911   1_554  S
Al27         O37   1.897       .  S
Al27        O267   1.912       .  S
Al27        O288   1.896       .  S
Al27         O32   1.789       .  S
O28          C35   1.261       .  A
O28         Al36   1.897       .  S
O29          C38   1.259       .  A
O29        Al284   1.893   1_554  S
O30         Al36   1.905       .  S
O31          C38   1.261       .  A
O31        Al271   1.910   1_554  S
O32         Al36   1.788       .  S
O33          C34   1.260       .  A
O33        Al271   1.893   1_554  S
C34         C193   1.483       .  S
C35         C170   1.488       .  S
Al36        O274   1.911       .  S
Al36        O277   1.893       .  S
C38         C230   1.483       .  S
C39         C160   1.483       .  S
C39          O40   1.259       .  A
O40        Al275   1.896   1_554  S
C41          C42   1.400       .  A
C41          C46   1.400       .  A
C41         C143   1.475       .  S
C42          C43   1.404       .  A
C42          H47   1.085       .  S
C43          C44   1.405       .  A
C43         C163   1.485       .  S
C44          C45   1.406       .  A
C44          H48   1.083       .  S
C45          C46   1.403       .  A
C45         C153   1.475       .  S
C46          H49   1.084       .  S
C50          C51   1.400       .  A
C50          C55   1.401       .  A
C50         C173   1.478       .  S
C51          C52   1.404       .  A
C51          H56   1.084       .  S
C52          C53   1.406       .  A
C52         C150   1.474       .  S
C53          C54   1.405       .  A
C53          H57   1.083       .  S
C54          C55   1.403       .  A
C54         C133   1.484       .  S
C55          H58   1.085       .  S
O59          C74   1.262       .  A
O59        Al315   1.914   1_554  S
C60         C203   1.489       .  S
C60          O70   1.264       .  A
C60          O61   1.261       .  A
O61         Al63   1.900       .  S
O62          C64   1.261       .  A
O62         Al63   1.898       .  S
Al63        O319   1.909       .  S
Al63        O321   1.881       .  S
Al63         O72   1.788       .  S
C64         C110   1.470       .  S
C64          O77   1.260       .  A
O65          C75   1.261       .  A
O65         Al67   1.916       .  S
O66          C79   1.264       .  A
O66        Al324   1.906   1_554  S
Al67         O77   1.901       .  S
Al67        O307   1.914       .  S
Al67        O328   1.904       .  S
Al67         O72   1.792       .  S
O68          C75   1.257       .  A
O68         Al76   1.887       .  S
O69          C78   1.258       .  A
O69        Al324   1.895   1_554  S
O70         Al76   1.913       .  S
O71          C78   1.260       .  A
O71        Al311   1.909   1_554  S
O72         Al76   1.788       .  S
O73          C74   1.256       .  A
O73        Al311   1.881   1_554  S
C74         C123   1.485       .  S
C75         C130   1.484       .  S
Al76        O314   1.906       .  S
Al76        O317   1.895       .  S
C78         C223   1.482       .  S
C79         C140   1.489       .  S
C79          O80   1.263       .  A
O80        Al315   1.904   1_554  S
C81          C82   1.399       .  A
C81          C86   1.401       .  A
C81         C120   1.478       .  S
C82          C83   1.400   1_455  A
C82          H87   1.085       .  S
C83          C84   1.403       .  A
C83         C190   1.482       .  S
C84          C85   1.409       .  A
C84          H88   1.083       .  S
C85          C86   1.408   1_655  A
C85         C100   1.484       .  S
C86          H89   1.083       .  S
C90          C91   1.403   1_455  A
C90          C95   1.404       .  A
C90         C113   1.482       .  S
C91          C92   1.401       .  A
C91          H96   1.085       .  S
C92          C93   1.400       .  A
C92         C183   1.473       .  S
C93          C94   1.405       .  A
C93          H97   1.084       .  S
C94          C95   1.406   1_655  A
C94         C103   1.481       .  S
C95          H98   1.083       .  S
C99         C100   1.408   1_455  A
C99         C104   1.399       .  A
C99         F106   1.358       .  S
C100        C101   1.408       .  A
C101        C102   1.398       .  A
C101        F108   1.358       .  S
C102        C103   1.406       .  A
C102        F107   1.358       .  S
C103        C104   1.405   1_655  A
C104        F105   1.358       .  S
C109        C110   1.404       .  A
C109        C114   1.398       .  A
C109        F116   1.358       .  S
C110        C111   1.404       .  A
C111        C112   1.400       .  A
C111        F118   1.358       .  S
C112        C113   1.407       .  A
C112        F117   1.358       .  S
C113        C114   1.408       .  A
C114        F115   1.358       .  S
C119        C120   1.401       .  A
C119        C124   1.392       .  A
C119        F126   1.358       .  S
C120        C121   1.406       .  A
C121        C122   1.404       .  A
C121        F128   1.358       .  S
C122        C123   1.410       .  A
C122        F127   1.357       .  S
C123        C124   1.413       .  A
C124        F373   1.358       .  S
F125        C372   1.358       .  S
C129        C130   1.409       .  A
C129        C134   1.405       .  A
C129        F136   1.357       .  S
C130        C131   1.411       .  A
C131        C132   1.392       .  A
C131        F138   1.359       .  S
C132        C133   1.404       .  A
C132        F137   1.358       .  S
C133        C134   1.409       .  A
C134        F135   1.358       .  S
C139        C140   1.414       .  A
C139        C144   1.395       .  A
C139        F146   1.358       .  S
C140        C141   1.412       .  A
C141        C142   1.402       .  A
C141        F148   1.357       .  S
C142        C143   1.403       .  A
C142        F147   1.358       .  S
C143        C144   1.400       .  A
C144        F145   1.358       .  S
C149        C150   1.404       .  A
C149        C154   1.400       .  A
C149        F156   1.358       .  S
C150        C151   1.404       .  A
C151        C152   1.398       .  A
C151        F158   1.358       .  S
C152        C153   1.404       .  A
C152        F157   1.358       .  S
C153        C154   1.405       .  A
C154        F155   1.358       .  S
C159        C160   1.410       .  A
C159        C164   1.393       .  A
C159        F414   1.359       .  S
C160        C161   1.408       .  A
C161        C162   1.404       .  A
C161        F168   1.358       .  S
C162        C163   1.408       .  A
C162        F167   1.357       .  S
C163        C164   1.405       .  A
C164        F165   1.358       .  S
F166        C407   1.359       .  S
C169        C170   1.411       .  A
C169        C174   1.403       .  A
C169        F176   1.358       .  S
C170        C171   1.414       .  A
C171        C172   1.393       .  A
C171        F178   1.358       .  S
C172        C173   1.400       .  A
C172        F177   1.358       .  S
C173        C174   1.405       .  A
C174        F175   1.358       .  S
C179        C180   1.414       .  A
C179        C184   1.395       .  A
C179        F186   1.358       .  S
C180        C181   1.412       .  A
C181        C182   1.402       .  A
C181        F188   1.358       .  S
C182        C183   1.403       .  A
C182        F187   1.358       .  S
C183        C184   1.399       .  A
C184        F185   1.358       .  S
C189        C190   1.404       .  A
C189        C194   1.391       .  A
C189        F196   1.358       .  S
C190        C191   1.408       .  A
C191        C192   1.404       .  A
C191        F198   1.358       .  S
C192        C193   1.409       .  A
C192        F197   1.357       .  S
C193        C194   1.410       .  A
C194        F443   1.359       .  S
F195        C442   1.359       .  S
C199        C200   1.399       .  A
C199        C204   1.395       .  A
C199        F206   1.358       .  S
C200        C201   1.404       .  A
C201        C202   1.404       .  A
C201        F208   1.357       .  S
C202        C203   1.411       .  A
C202        F207   1.357       .  S
C203        C204   1.414       .  A
C204        F205   1.358       .  S
C209        C210   1.405       .  A
C209        C214   1.401       .  A
C209        F216   1.358       .  S
C210        C211   1.403       .  A
C211        C212   1.398       .  A
C211        F218   1.358       .  S
C212        C213   1.408       .  A
C212        F217   1.358       .  S
C213        C214   1.407       .  A
C214        F215   1.358       .  S
C219        C220   1.405       .  A
C219        C224   1.393       .  A
C219        F226   1.358       .  S
C220        C221   1.408       .  A
C221        C222   1.403       .  A
C221        F228   1.358       .  S
C222        C223   1.408       .  A
C222        F227   1.358       .  S
C223        C224   1.410       .  A
C224        F473   1.359       .  S
F225        C472   1.359       .  S
C229        C230   1.410       .  A
C229        C234   1.394       .  A
C229        F484   1.359       .  S
C230        C231   1.408       .  A
C231        C232   1.403       .  A
C231        F238   1.358       .  S
C232        C233   1.408       .  A
C232        F237   1.358       .  S
C233        C234   1.405       .  A
C234        F235   1.358       .  S
F236        C477   1.359       .  S
C239        C240   1.404       .  A
C239        C244   1.398       .  A
C239        F246   1.358       .  S
C240        C241   1.404   1_545  A
C241        C242   1.400       .  A
C241        F248   1.358       .  S
C242        C243   1.404   1_565  A
C242        F247   1.358       .  S
C243        C244   1.403       .  A
C244        F245   1.358       .  S
C249        C250   1.403       .  A
C249        C254   1.403   1_565  A
C249        C468   1.484       .  S
C250        C251   1.404   1_565  A
C250        H255   1.084       .  S
C251        C252   1.404       .  A
C251        C491   1.473       .  S
C252        C253   1.403       .  A
C252        H256   1.084       .  S
C253        C254   1.403       .  A
C253        C481   1.484       .  S
C254        H257   1.084       .  S
C258        C259   1.402       .  A
C258        C263   1.402       .  A
C258        C458   1.476       .  S
C259        C260   1.403       .  A
C259        H264   1.084       .  S
C260        C261   1.403   1_545  A
C260        C488   1.473       .  S
C261        C262   1.402       .  A
C261        H265   1.084       .  S
C262        C263   1.403   1_565  A
C262        C448   1.475       .  S
C263        H266   1.085       .  S
O267        C282   1.263       .  A
C268        C461   1.477       .  S
C268        O278   1.262       .  A
C268        O269   1.260       .  A
O269       Al271   1.898       .  S
O270        C272   1.261       .  A
O270       Al271   1.907       .  S
Al271       O280   1.787       .  S
C272        C428   1.487       .  S
C272        O285   1.259       .  A
O273        C283   1.263       .  A
O273       Al275   1.912       .  S
O274        C287   1.262       .  A
Al275       O285   1.897       .  S
Al275       O280   1.789       .  S
O276        C283   1.261       .  A
O276       Al284   1.897       .  S
O277        C286   1.259       .  A
O278       Al284   1.905       .  S
O279        C286   1.261       .  A
O280       Al284   1.788       .  S
O281        C282   1.260       .  A
C282        C441   1.483       .  S
C283        C418   1.488       .  S
C286        C478   1.483       .  S
C287        C408   1.483       .  S
C287        O288   1.259       .  A
C289        C290   1.400       .  A
C289        C294   1.400       .  A
C289        C391   1.475       .  S
C290        C291   1.404       .  A
C290        H295   1.085       .  S
C291        C292   1.405       .  A
C291        C411   1.485       .  S
C292        C293   1.406       .  A
C292        H296   1.083       .  S
C293        C294   1.403       .  A
C293        C401   1.475       .  S
C294        H297   1.084       .  S
C298        C299   1.400       .  A
C298        C303   1.401       .  A
C298        C421   1.478       .  S
C299        C300   1.404       .  A
C299        H304   1.084       .  S
C300        C301   1.406       .  A
C300        C398   1.474       .  S
C301        C302   1.405       .  A
C301        H305   1.083       .  S
C302        C303   1.403       .  A
C302        C381   1.484       .  S
C303        H306   1.085       .  S
O307        C322   1.262       .  A
C308        C451   1.489       .  S
C308        O318   1.264       .  A
C308        O309   1.261       .  A
O309       Al311   1.900       .  S
O310        C312   1.261       .  A
O310       Al311   1.898       .  S
Al311       O320   1.788       .  S
C312        C358   1.470       .  S
C312        O325   1.260       .  A
O313        C323   1.261       .  A
O313       Al315   1.916       .  S
O314        C327   1.264       .  A
Al315       O325   1.901       .  S
Al315       O320   1.792       .  S
O316        C323   1.257       .  A
O316       Al324   1.887       .  S
O317        C326   1.258       .  A
O318       Al324   1.913       .  S
O319        C326   1.260       .  A
O320       Al324   1.788       .  S
O321        C322   1.256       .  A
C322        C371   1.485       .  S
C323        C378   1.484       .  S
C326        C471   1.482       .  S
C327        C388   1.489       .  S
C327        O328   1.263       .  A
C329        C330   1.399       .  A
C329        C334   1.401       .  A
C329        C368   1.478       .  S
C330        C331   1.400   1_455  A
C330        H335   1.085       .  S
C331        C332   1.403       .  A
C331        C438   1.482       .  S
C332        C333   1.409       .  A
C332        H336   1.083       .  S
C333        C334   1.408   1_655  A
C333        C348   1.484       .  S
C334        H337   1.083       .  S
C338        C339   1.403   1_455  A
C338        C343   1.404       .  A
C338        C361   1.482       .  S
C339        C340   1.401       .  A
C339        H344   1.085       .  S
C340        C341   1.400       .  A
C340        C431   1.473       .  S
C341        C342   1.405       .  A
C341        H345   1.084       .  S
C342        C343   1.406   1_655  A
C342        C351   1.481       .  S
C343        H346   1.083       .  S
C347        C348   1.408   1_455  A
C347        C352   1.399       .  A
C347        F354   1.358       .  S
C348        C349   1.408       .  A
C349        C350   1.398       .  A
C349        F356   1.358       .  S
C350        C351   1.406       .  A
C350        F355   1.358       .  S
C351        C352   1.405   1_655  A
C352        F353   1.358       .  S
C357        C358   1.404       .  A
C357        C362   1.398       .  A
C357        F364   1.358       .  S
C358        C359   1.404       .  A
C359        C360   1.400       .  A
C359        F366   1.358       .  S
C360        C361   1.407       .  A
C360        F365   1.358       .  S
C361        C362   1.408       .  A
C362        F363   1.358       .  S
C367        C368   1.401       .  A
C367        C372   1.392       .  A
C367        F374   1.358       .  S
C368        C369   1.406       .  A
C369        C370   1.404       .  A
C369        F376   1.358       .  S
C370        C371   1.410       .  A
C370        F375   1.357       .  S
C371        C372   1.413       .  A
C377        C378   1.409       .  A
C377        C382   1.405       .  A
C377        F384   1.357       .  S
C378        C379   1.411       .  A
C379        C380   1.392       .  A
C379        F386   1.359       .  S
C380        C381   1.404       .  A
C380        F385   1.358       .  S
C381        C382   1.409       .  A
C382        F383   1.358       .  S
C387        C388   1.414       .  A
C387        C392   1.395       .  A
C387        F394   1.358       .  S
C388        C389   1.412       .  A
C389        C390   1.402       .  A
C389        F396   1.357       .  S
C390        C391   1.403       .  A
C390        F395   1.358       .  S
C391        C392   1.400       .  A
C392        F393   1.358       .  S
C397        C398   1.404       .  A
C397        C402   1.400       .  A
C397        F404   1.358       .  S
C398        C399   1.404       .  A
C399        C400   1.398       .  A
C399        F406   1.358       .  S
C400        C401   1.404       .  A
C400        F405   1.358       .  S
C401        C402   1.405       .  A
C402        F403   1.358       .  S
C407        C408   1.410       .  A
C407        C412   1.393       .  A
C408        C409   1.408       .  A
C409        C410   1.404       .  A
C409        F416   1.358       .  S
C410        C411   1.408       .  A
C410        F415   1.357       .  S
C411        C412   1.405       .  A
C412        F413   1.358       .  S
C417        C418   1.411       .  A
C417        C422   1.403       .  A
C417        F424   1.358       .  S
C418        C419   1.414       .  A
C419        C420   1.393       .  A
C419        F426   1.358       .  S
C420        C421   1.400       .  A
C420        F425   1.358       .  S
C421        C422   1.405       .  A
C422        F423   1.358       .  S
C427        C428   1.414       .  A
C427        C432   1.395       .  A
C427        F434   1.358       .  S
C428        C429   1.412       .  A
C429        C430   1.402       .  A
C429        F436   1.358       .  S
C430        C431   1.403       .  A
C430        F435   1.358       .  S
C431        C432   1.399       .  A
C432        F433   1.358       .  S
C437        C438   1.404       .  A
C437        C442   1.391       .  A
C437        F444   1.358       .  S
C438        C439   1.408       .  A
C439        C440   1.404       .  A
C439        F446   1.358       .  S
C440        C441   1.409       .  A
C440        F445   1.357       .  S
C441        C442   1.410       .  A
C447        C448   1.399       .  A
C447        C452   1.395       .  A
C447        F454   1.358       .  S
C448        C449   1.404       .  A
C449        C450   1.404       .  A
C449        F456   1.357       .  S
C450        C451   1.411       .  A
C450        F455   1.357       .  S
C451        C452   1.414       .  A
C452        F453   1.358       .  S
C457        C458   1.405       .  A
C457        C462   1.401       .  A
C457        F464   1.358       .  S
C458        C459   1.403       .  A
C459        C460   1.398       .  A
C459        F466   1.358       .  S
C460        C461   1.408       .  A
C460        F465   1.358       .  S
C461        C462   1.407       .  A
C462        F463   1.358       .  S
C467        C468   1.405       .  A
C467        C472   1.393       .  A
C467        F474   1.358       .  S
C468        C469   1.408       .  A
C469        C470   1.403       .  A
C469        F476   1.358       .  S
C470        C471   1.408       .  A
C470        F475   1.358       .  S
C471        C472   1.410       .  A
C477        C478   1.410       .  A
C477        C482   1.394       .  A
C478        C479   1.408       .  A
C479        C480   1.403       .  A
C479        F486   1.358       .  S
C480        C481   1.408       .  A
C480        F485   1.358       .  S
C481        C482   1.405       .  A
C482        F483   1.358       .  S
C487        C488   1.404       .  A
C487        C492   1.398       .  A
C487        F494   1.358       .  S
C488        C489   1.404   1_545  A
C489        C490   1.400       .  A
C489        F496   1.358       .  S
C490        C491   1.404   1_565  A
C490        F495   1.358       .  S
C491        C492   1.403       .  A
C492        F493   1.358       .  S
