geometry optimzed in LAMMPS
_audit_creation_date              2020-11-30 
_audit_creation_method            'lammps2cif' 
_symmetry_space_group_name_H-M    'P1' 
_symmetry_Int_Tables_number       1 
_symmetry_cell_setting            triclinic 
loop_ 
_symmetry_equiv_pos_as_xyz 
  x,y,z 
_cell_length_a                    29.04259321684575 
_cell_length_b                    28.91722041606894 
_cell_length_c                    107.49567650948987 
_cell_angle_alpha                 90.14647517480014 
_cell_angle_beta                  89.76052927668307 
_cell_angle_gamma                 121.28415374145239 
loop_ 
_atom_site_label 
_atom_site_type_symbol 
_atom_site_fract_x 
_atom_site_fract_y 
_atom_site_fract_z 
_atom_site_charge 
O1          O  0.34392768  0.76019885  0.51602856    -0.81680
C2          C  0.38630303  0.62365362  0.48904750     0.97670
O3          O  0.40456576  0.67327596  0.49068533    -0.70800
O4          O  0.40752749  0.76329548  0.49550008    -0.74390
Al5        Al  0.40115988  0.70463360  0.50560753     1.48980
C6          C  0.37286119  0.76706099  0.48920218     0.92930
O7          O  0.23355403  0.64521814  0.49563872    -0.80610
O8          O  0.23425439  0.58333515  0.51584170    -0.74170
Al9        Al  0.29254785  0.69902853  0.50594714     1.90120
O10         O  0.26064908  0.58936110  0.49102601    -0.73240
O11         O  0.32771331  0.59252176  0.52083086    -0.73090
O12         O  0.34812286  0.58885112  0.49580367    -0.78750
O13         O  0.41055645  0.65438570  0.51557554    -0.76950
O14         O  0.32976239  0.66610502  0.50584577    -1.13090
O15         O  0.40504907  0.74002500  0.52049341    -0.72280
C16         C  0.38511520  0.76914231  0.52212724     0.98440
C17         C  0.23044942  0.60748556  0.48891316     0.94830
Al18       Al  0.29540080  0.59434321  0.50591064     1.55560
O19         O  0.32338214  0.73571578  0.49108013    -0.76900
C20         C  0.37778655  0.61357297  0.52198971     0.99000
C21         C  0.22685963  0.61579484  0.52226967     0.93880
O22         O  0.25759773  0.66592639  0.52086975    -0.82220
C23         C  0.67529759  0.81127320  0.37769767     0.03240
C24         C  0.66440714  0.77780341  0.38815416    -0.12900
C25         C  0.61104613  0.73955516  0.39156330     0.00750
C26         C  0.56864674  0.73712819  0.38477005    -0.11430
C27         C  0.57852487  0.76822524  0.37394128     0.03240
C28         C  0.63214523  0.80518328  0.37051825    -0.10850
H29         H  0.69743617  0.78035553  0.39339508     0.08830
H30         H  0.52753905  0.70935247  0.38770645     0.06360
H31         H  0.64069914  0.82686564  0.36180933     0.06210
C32         C  0.54016467  0.51987884  0.44637196     0.03240
C33         C  0.50762107  0.52877270  0.45456692    -0.12900
C34         C  0.49623541  0.56936121  0.45220350     0.00750
C35         C  0.51658206  0.60068574  0.44141251    -0.11430
C36         C  0.54874459  0.59237612  0.43307766     0.03240
C37         C  0.56000628  0.55145211  0.43546471    -0.10850
H38         H  0.49362320  0.50618988  0.46319032     0.08830
H39         H  0.50791271  0.63223568  0.43955329     0.06360
H40         H  0.58493412  0.54510586  0.42900859     0.06210
C41         C  0.09816515  0.36432775  0.39270589     0.03240
C42         C  0.13504387  0.40766691  0.38519711    -0.12900
C43         C  0.15743819  0.39893586  0.37448549     0.00750
C44         C  0.14474657  0.34617912  0.37171098    -0.11430
C45         C  0.10909817  0.30250935  0.37927266     0.03240
C46         C  0.08569927  0.31161396  0.38976060    -0.10850
H47         H  0.14494840  0.44835452  0.38747550     0.08830
H48         H  0.15915079  0.33825112  0.36312512     0.06360
H49         H  0.05599971  0.27758564  0.39522276     0.06210
C50         C  0.02421916  0.43331518  0.43456284     0.03240
C51         C  0.97195883  0.41982580  0.43808943    -0.12900
C52         C  0.96429293  0.44345999  0.44876976     0.00750
C53         C  0.00948723  0.48116481  0.45566785    -0.11430
C54         C  0.06170428  0.49505127  0.45225775     0.03240
C55         C  0.06861817  0.47133792  0.44155446    -0.10850
H56         H  0.93758755  0.38934671  0.43290230     0.08830
H57         H  0.00349438  0.49764628  0.46414489     0.06360
H58         H  0.10873298  0.48164348  0.43873705     0.06210
C59         C  0.38116836  0.95674298  0.43490328     0.03240
C60         C  0.37570656  0.91632958  0.44310693    -0.12900
C61         C  0.40992164  0.92979649  0.45338267     0.00750
C62         C  0.44994678  0.98374420  0.45543999    -0.11430
C63         C  0.45633267  0.02490941  0.44744218     0.03240
C64         C  0.42189577  0.01108838  0.43708286    -0.10850
H65         H  0.34435603  0.87449842  0.44159740     0.08830
H66         H  0.47525389  0.99383434  0.46359758     0.06360
H67         H  0.42616411  0.04244875  0.43085184     0.06210
C68         C  0.16432270  0.87085455  0.37922308     0.03240
C69         C  0.17304043  0.83729381  0.37129848    -0.12900
C70         C  0.21123255  0.82314717  0.37418052     0.00750
C71         C  0.24130402  0.84343514  0.38517874    -0.11430
C72         C  0.23406330  0.87768181  0.39314151     0.03240
C73         C  0.19465300  0.89037404  0.39026994    -0.10850
H74         H  0.15222867  0.82481654  0.36246755     0.08830
H75         H  0.27139671  0.83341114  0.38748502     0.06360
H76         H  0.18890306  0.91667328  0.39642173     0.06210
O77         O  0.41093383  0.68268689  0.30960092    -0.81680
C78         C  0.27016689  0.71872196  0.33632921     0.97670
O79         O  0.31947770  0.73917690  0.33418306    -0.70800
O80         O  0.41036189  0.74483575  0.32990498    -0.74390
Al81       Al  0.35151699  0.73652316  0.31939988     1.48980
C82         C  0.41290173  0.71031572  0.33669248     0.92930
O83         O  0.29667693  0.56857577  0.32945263    -0.80610
O84         O  0.23525828  0.56831032  0.30905596    -0.74170
Al85       Al  0.34956696  0.62943198  0.31939011     1.90120
O86         O  0.23913862  0.59310350  0.33411639    -0.73240
O87         O  0.23997283  0.66042774  0.30435351    -0.73090
O88         O  0.23570999  0.67987873  0.32963360    -0.78750
O89         O  0.30028397  0.74401142  0.30922674    -0.76950
O90         O  0.31475239  0.66478237  0.31926669    -1.13090
O91         O  0.38817827  0.74135003  0.30455450    -0.72280
C92         C  0.41889104  0.72311461  0.30321837     0.98440
C93         C  0.25845119  0.56383397  0.33618524     0.94830
Al94       Al  0.24328947  0.62832847  0.31924284     1.55560
O95         O  0.38316352  0.66077319  0.33439525    -0.76900
C96         C  0.25975598  0.71039644  0.30284692     0.99000
C97         C  0.26890952  0.56227553  0.30272600     0.93880
O98         O  0.31861555  0.59396821  0.30435906    -0.82220
C99         C  0.62497433  0.85570952  0.27935170     0.03240
C100        C  0.63776090  0.88726985  0.26843840    -0.12900
C101        C  0.69134736  0.92910736  0.26594759     0.00750
C102        C  0.73154201  0.93765989  0.27456485    -0.11430
C103        C  0.71978857  0.90549154  0.28522792     0.03240
C104        C  0.66631133  0.86531276  0.28763128    -0.10850
H105        H  0.60590420  0.87864794  0.26195097     0.08830
H106        H  0.77268107  0.97016917  0.27310291     0.06360
H107        H  0.65643433  0.84325147  0.29632105     0.06210
C108        C  0.76241539  0.06849960  0.22177824     0.03240
C109        C  0.79510245  0.06110149  0.21325199    -0.12900
C110        C  0.81704807  0.09431882  0.20284952     0.00750
C111        C  0.80412343  0.13333043  0.20037323    -0.11430
C112        C  0.76613192  0.13712361  0.20767568     0.03240
C113        C  0.74682582  0.10617775  0.21871660    -0.10850
H114        H  0.80272343  0.02850286  0.21447239     0.08830
H115        H  0.82067358  0.15806235  0.19210235     0.06360
H116        H  0.71910378  0.11056368  0.22464087     0.06210
O117        O  0.05157166  0.99214931  0.13508930    -0.81680
C118        C  0.92486936  0.04111841  0.16585978     0.97670
O119        O  0.96378590  0.07510821  0.15914663    -0.70800
O120        O  0.05153079  0.07490195  0.16389348    -0.74390
Al121      Al  0.01505346  0.06769155  0.14902914     1.48980
C122        C  0.07971609  0.05463828  0.16626590     0.92930
O123        O  0.98213272  0.92563597  0.16488901    -0.80610
O124        O  0.90373769  0.92204759  0.13480809    -0.74170
Al125      Al  0.01457577  0.96084842  0.14997851     1.90120
O126        O  0.89889181  0.89907341  0.15989816    -0.73240
O127        O  0.89954215  0.00923480  0.13944054    -0.73090
O128        O  0.90429928  0.99107047  0.16432268    -0.78750
O129        O  0.98227350  0.06876439  0.13398073    -0.76950
O130        O  0.97919929  0.99573122  0.14955543    -1.13090
O131        O  0.07489234  0.07587296  0.13920155    -0.72280
C132        C  0.08284353  0.04210608  0.13358475     0.98440
C133        C  0.93244324  0.89429491  0.16640724     0.94830
Al134      Al  0.90756142  0.95847690  0.14960445     1.55560
O135        O  0.07339558  0.01391569  0.16027211    -0.76900
C136        C  0.93236872  0.04897679  0.13274338     0.99000
C137        C  0.92273930  0.89187758  0.13348193     0.93880
O138        O  0.96274714  0.89992202  0.13994640    -0.82220
C139        C  0.21531820  0.29709454  0.26528804     0.03240
C140        C  0.18333405  0.25482835  0.27360501    -0.12900
C141        C  0.16115762  0.26397199  0.28427682     0.00750
C142        C  0.17147301  0.31609843  0.28667217    -0.11430
C143        C  0.20278812  0.35913254  0.27848345     0.03240
C144        C  0.22447508  0.34921557  0.26771096    -0.10850
H145        H  0.17558857  0.21452993  0.27175755     0.08830
H146        H  0.15744061  0.32368447  0.29534888     0.06360
H147        H  0.24940393  0.38211657  0.26139919     0.06210
C148        C  0.27920666  0.22568445  0.22160089     0.03240
C149        C  0.23587667  0.19089571  0.21381709    -0.12900
C150        C  0.24438537  0.16803480  0.20319627     0.00750
C151        C  0.29627585  0.17986175  0.20029710    -0.11430
C152        C  0.34020165  0.21497300  0.20776324     0.03240
C153        C  0.33153764  0.23717760  0.21857672    -0.10850
H154        H  0.19564293  0.18238013  0.21588466     0.08830
H155        H  0.30297854  0.16394756  0.19178216     0.06360
H156        H  0.36553579  0.26530552  0.22422621     0.06210
C157        C  0.13293505  0.78336340  0.27828808     0.03240
C158        C  0.10254016  0.76543599  0.26719229    -0.12900
C159        C  0.06336658  0.77913036  0.26457071     0.00750
C160        C  0.05451329  0.80966241  0.27343264    -0.11430
C161        C  0.08481036  0.82832362  0.28440831     0.03240
C162        C  0.12356087  0.81463979  0.28676553    -0.10850
H163        H  0.10963566  0.74123936  0.26065108     0.08830
H164        H  0.02284124  0.81817036  0.27194638     0.06360
H165        H  0.14449402  0.82578212  0.29558984     0.06210
C166        C  0.92098830  0.70496054  0.22102207     0.03240
C167        C  0.87865869  0.65060020  0.21921754    -0.12900
C168        C  0.84504546  0.63560964  0.20863511     0.00750
C169        C  0.85242236  0.67575849  0.20017765    -0.11430
C170        C  0.89257168  0.72966712  0.20198348     0.03240
C171        C  0.92741324  0.74385035  0.21212971    -0.10850
H172        H  0.87105986  0.61999798  0.22603540     0.08830
H173        H  0.82742643  0.66497999  0.19194806     0.06360
H174        H  0.96028381  0.78543232  0.21283982     0.06210
O175        O  0.98671789  0.06730152  0.35318928    -0.81680
C176        C  0.02947315  0.93838918  0.32148239     0.97670
O177        O  0.06439330  0.97553772  0.32848822    -0.70800
O178        O  0.06760721  0.06607677  0.32389150    -0.74390
Al179      Al  0.05939442  0.02911321  0.33875438     1.48980
C180        C  0.05113514  0.09785267  0.32187570     0.92930
O181        O  0.92356807  0.00489250  0.32280017    -0.80610
O182        O  0.91269336  0.92080334  0.35258845    -0.74170
Al183      Al  0.95640582  0.03398089  0.33800096     1.90120
O184        O  0.89069719  0.91989905  0.32741821    -0.73240
O185        O  0.99740249  0.91277784  0.34783223    -0.73090
O186        O  0.98038187  0.92175427  0.32296925    -0.78750
O187        O  0.05815800  0.99479267  0.35371046    -0.76950
O188        O  0.98816568  0.99592406  0.33822347    -1.13090
O189        O  0.06983921  0.09062328  0.34882020    -0.72280
C190        C  0.03650918  0.09892182  0.35460824     0.98440
C191        C  0.88962330  0.95589538  0.32088325     0.94830
Al192      Al  0.94852346  0.92444903  0.33776789     1.55560
O193        O  0.01241378  0.09414121  0.32825490    -0.76900
C194        C  0.03722502  0.94433683  0.35464824     0.99000
C195        C  0.88282555  0.94009665  0.35374536     0.93880
O196        O  0.89281066  0.98162922  0.34749919    -0.82220
O197        O  0.73975656  0.34694487  0.97285248    -0.81680
C198        C  0.60116064  0.39344748  0.99677968     0.97670
O199        O  0.65049774  0.41044204  0.99561161    -0.70800
O200        O  0.73980782  0.41165408  0.99182849    -0.74390
Al201      Al  0.68305278  0.40511035  0.98118746     1.48980
C202        C  0.74107755  0.37739168  0.99888998     0.92930
O203        O  0.61996917  0.23710889  0.99218582    -0.80610
O204        O  0.56328725  0.23816582  0.97115073    -0.74170
Al205      Al  0.67598589  0.29596056  0.98236642     1.90120
O206        O  0.56411108  0.26490690  0.99588960    -0.73240
O207        O  0.57411851  0.33199865  0.96535658    -0.73090
O208        O  0.56670779  0.35423576  0.99018100    -0.78750
O209        O  0.63522021  0.41482165  0.97062056    -0.76950
O210        O  0.64381787  0.33361305  0.98139470    -1.13090
O211        O  0.71940568  0.40619269  0.96667506    -0.72280
C212        C  0.74948667  0.38697325  0.96607081     0.98440
C213        C  0.58112839  0.23393459  0.99837009     0.94830
Al214      Al  0.57263866  0.29991258  0.98067337     1.55560
O215        O  0.70829372  0.32761929  0.99758384    -0.76900
C216        C  0.59587696  0.38229725  0.96388197     0.99000
C217        C  0.59681786  0.23040788  0.96531860     0.93880
O218        O  0.64649791  0.26066788  0.96729030    -0.82220
C219        C  0.49572066  0.54124227  0.04188141     0.03240
C220        C  0.50347797  0.51099714  0.03277769    -0.12900
C221        C  0.54529669  0.50089734  0.03386011     0.00750
C222        C  0.57932256  0.52069240  0.04418990    -0.11430
C223        C  0.57042366  0.54780739  0.05389527     0.03240
C224        C  0.52854696  0.55862082  0.05258079    -0.10850
H225        H  0.47925471  0.49840440  0.02440311     0.08830
H226        H  0.61354283  0.51540914  0.04450817     0.06360
H227        H  0.52160264  0.58066510  0.05975791     0.06210
C228        C  0.71745073  0.61905871  0.09623911     0.03240
C229        C  0.75766556  0.67322430  0.09873549    -0.12900
C230        C  0.78936164  0.68657973  0.10955951     0.00750
C231        C  0.78181611  0.64534852  0.11770962    -0.11430
C232        C  0.74332787  0.59118248  0.11524737     0.03240
C233        C  0.71130803  0.57870418  0.10456840    -0.10850
H234        H  0.76467509  0.70502357  0.09232026     0.08830
H235        H  0.80419742  0.65599007  0.12633344     0.06360
H236        H  0.68036012  0.53698492  0.10291741     0.06210
C237        C  0.40999996  0.02827268  0.05335965     0.03240
C238        C  0.44505914  0.07201771  0.04573450    -0.12900
C239        C  0.46671654  0.06392645  0.03482899     0.00750
C240        C  0.45286134  0.01126097  0.03162216    -0.11430
C241        C  0.41825355  0.96717351  0.03919106     0.03240
C242        C  0.39733923  0.97575542  0.05017946    -0.10850
H243        H  0.45503410  0.11250694  0.04825996     0.08830
H244        H  0.46677018  0.00395594  0.02288634     0.06360
H245        H  0.36944760  0.94162256  0.05587800     0.06210
C246        C  0.34787850  0.10127260  0.09653414     0.03240
C247        C  0.29579037  0.08829216  0.10006664    -0.12900
C248        C  0.28829331  0.11066685  0.11095180     0.00750
C249        C  0.33316039  0.14754363  0.11798588    -0.11430
C250        C  0.38531149  0.16128898  0.11454977     0.03240
C251        C  0.39230387  0.13829958  0.10371526    -0.10850
H252        H  0.26115739  0.05865677  0.09479462     0.08830
H253        H  0.32683056  0.16280963  0.12662956     0.06360
H254        H  0.43242994  0.14832416  0.10098927     0.06210
C255        C  0.00415684  0.45506596  0.03674795     0.03240
C256        C  0.96177706  0.45275007  0.03006106    -0.12900
C257        C  0.90846664  0.41393196  0.03269526     0.00750
C258        C  0.89658926  0.37961062  0.04287512    -0.11430
C259        C  0.93761799  0.38472983  0.05084531     0.03240
C260        C  0.99208543  0.42272797  0.04754902    -0.10850
H261        H  0.97035179  0.47979427  0.02226381     0.08830
H262        H  0.85496692  0.34815859  0.04437340     0.06360
H263        H  0.02488396  0.42722816  0.05318756     0.06210
C264        C  0.86558799  0.24907622  0.09576755     0.03240
C265        C  0.87617397  0.20734092  0.09807501    -0.12900
C266        C  0.85795111  0.17652325  0.10913856     0.00750
C267        C  0.82807632  0.18708899  0.11778217    -0.11430
C268        C  0.81791434  0.22869181  0.11578214     0.03240
C269        C  0.83777785  0.26008492  0.10496132    -0.10850
H270        H  0.89841058  0.19861706  0.09132158     0.08830
H271        H  0.81543101  0.16514153  0.12649636     0.06360
H272        H  0.83187888  0.29378540  0.10384715     0.06210
O273        O  0.66520701  0.42062765  0.17916017    -0.81680
C274        C  0.70568245  0.28164207  0.15266411     0.97670
O275        O  0.72345974  0.33130154  0.15408967    -0.70800
O276        O  0.72776789  0.42259329  0.15864246    -0.74390
Al277      Al  0.72079132  0.36340739  0.16898883     1.48980
C278        C  0.69255556  0.42469306  0.15210249     0.92930
O279        O  0.55362804  0.30498882  0.15899930    -0.80610
O280        O  0.55251390  0.24379467  0.17921906    -0.74170
Al281      Al  0.61299568  0.35888284  0.16925674     1.90120
O282        O  0.58017350  0.24856675  0.15447168    -0.73240
O283        O  0.64621561  0.25251801  0.18468009    -0.73090
O284        O  0.66744231  0.24716892  0.15951839    -0.78750
O285        O  0.72920747  0.31207271  0.17895176    -0.76950
O286        O  0.64938210  0.32535866  0.16932327    -1.13090
O287        O  0.72539404  0.39964700  0.18389315    -0.72280
C288        C  0.70602516  0.42939858  0.18541842     0.98440
C289        C  0.55046107  0.26724017  0.15225620     0.94830
Al290      Al  0.61433246  0.25364964  0.16953398     1.55560
O291        O  0.64357139  0.39312583  0.15436326    -0.76900
C292        C  0.69614051  0.27159999  0.18546720     0.99000
C293        C  0.54498659  0.27717446  0.18523562     0.93880
O294        O  0.57769030  0.32713510  0.18424906    -0.82220
O295        O  0.30843759  0.72914307  0.01473444    -0.81680
C296        C  0.37544191  0.61451202  0.98488841     0.97670
O297        O  0.40510250  0.65014130  0.99280064    -0.70800
O298        O  0.40199395  0.73629349  0.98754608    -0.74390
Al299      Al  0.39142210  0.69875391  0.00244339     1.48980
C300        C  0.38160427  0.76379714  0.98453374     0.92930
O301        O  0.25666663  0.66434187  0.98381581    -0.80610
O302        O  0.24406433  0.58042904  0.01376301    -0.74170
Al303      Al  0.28420096  0.69442185  0.99934044     1.90120
O304        O  0.22943636  0.58043167  0.98826287    -0.73240
O305        O  0.33435645  0.58166516  0.01051671    -0.73090
O306        O  0.32499325  0.59225766  0.98525246    -0.78750
O307        O  0.38744141  0.66393349  0.01756879    -0.76950
O308        O  0.32052254  0.66099374  0.00051929    -1.13090
O309        O  0.39381378  0.75667204  0.01213045    -0.72280
C310        C  0.35722479  0.76220209  0.01702966     0.98440
C311        C  0.22697725  0.61489678  0.98148973     0.94830
Al312      Al  0.28604440  0.58938359  0.99954821     1.55560
O313        O  0.33964190  0.75653955  0.99007642    -0.76900
C314        C  0.36954590  0.61385988  0.01820579     0.99000
C315        C  0.21235930  0.59773739  0.01441791     0.93880
O316        O  0.22076159  0.63855226  0.00811765    -0.82220
C317        C  0.17921572  0.30660827  0.87531981     0.03240
C318        C  0.21305469  0.32159957  0.88576499    -0.12900
C319        C  0.25070570  0.37648356  0.88814607     0.00750
C320        C  0.25371223  0.41613794  0.88011675    -0.11430
C321        C  0.22016628  0.40140052  0.86973670     0.03240
C322        C  0.18297564  0.34687255  0.86738543    -0.10850
H323        H  0.21125805  0.29069257  0.89177509     0.08830
H324        H  0.28348457  0.45846668  0.88170174     0.06360
H325        H  0.15878196  0.33567928  0.85901249     0.06210
C326        C  0.47796422  0.46489346  0.94019590     0.03240
C327        C  0.47467443  0.50054012  0.94849855    -0.12900
C328        C  0.43379513  0.51243547  0.94734687     0.00750
C329        C  0.39826035  0.49094092  0.93721750    -0.11430
C330        C  0.40307956  0.45754740  0.92847996     0.03240
C331        C  0.44283914  0.44442764  0.93002928    -0.10850
H332        H  0.50220707  0.51654757  0.95628078     0.08830
H333        H  0.36595756  0.49903551  0.93626059     0.06360
H334        H  0.44493247  0.41649612  0.92364388     0.06210
C335        C  0.68957437  0.88615160  0.87464547     0.03240
C336        C  0.68262130  0.91029243  0.88530246    -0.12900
C337        C  0.63072997  0.89824554  0.88870415     0.00750
C338        C  0.58623013  0.86089790  0.88168219    -0.11430
C339        C  0.59277973  0.83702294  0.87100801     0.03240
C340        C  0.64454814  0.84934184  0.86763523    -0.10850
H341        H  0.71741116  0.94044334  0.89044570     0.08830
H342        H  0.54630651  0.85190492  0.88430719     0.06360
H343        H  0.65045383  0.83335974  0.85904137     0.06210
C344        C  0.53611378  0.02789907  0.94185948     0.03240
C345        C  0.50232660  0.98436758  0.94972286    -0.12900
C346        C  0.49230391  0.93219754  0.94737542     0.00750
C347        C  0.51706652  0.92397969  0.93706569    -0.11430
C348        C  0.55192990  0.96707123  0.92927740     0.03240
C349        C  0.55988971  0.01859859  0.93146263    -0.10850
H350        H  0.48648771  0.99186150  0.95812140     0.08830
H351        H  0.50985922  0.88390871  0.93518323     0.06360
H352        H  0.58608492  0.05169976  0.92532830     0.06210
C353        C  0.11196767  0.81684296  0.87684323     0.03240
C354        C  0.08954083  0.78337328  0.88734878    -0.12900
C355        C  0.10326625  0.74470326  0.89014187     0.00750
C356        C  0.14218913  0.74226733  0.88294573    -0.11430
C357        C  0.16376623  0.77407980  0.87223652     0.03240
C358        C  0.14870797  0.81160412  0.86930810    -0.10850
H359        H  0.05988564  0.78573005  0.89300861     0.08830
H360        H  0.15338642  0.71300457  0.88533463     0.06360
H361        H  0.16242659  0.83406840  0.86067864     0.06210
C362        C  0.95812312  0.51390102  0.94266534     0.03240
C363        C  0.00180941  0.52106341  0.94985203    -0.12900
C364        C  0.05524155  0.55802118  0.94624086     0.00750
C365        C  0.06432063  0.58889746  0.93544740    -0.11430
C366        C  0.02143280  0.58513880  0.92873539     0.03240
C367        C  0.96844272  0.54651412  0.93207412    -0.10850
H368        H  0.99399223  0.50030355  0.95866362     0.08830
H369        H  0.10507283  0.61783989  0.93245263     0.06360
H370        H  0.93544734  0.54326560  0.92668259     0.06210
O371        O  0.39642422  0.67113718  0.80340320    -0.81680
C372        C  0.26684830  0.71433915  0.83462843     0.97670
O373        O  0.30488360  0.74939501  0.82787869    -0.70800
O374        O  0.39187718  0.74819554  0.83287424    -0.74390
Al375      Al  0.35755953  0.74366298  0.81785873     1.48980
C376        C  0.42125596  0.72909429  0.83503422     0.92930
O377        O  0.32508829  0.60034470  0.83272935    -0.80610
O378        O  0.24870626  0.59938695  0.80262318    -0.74170
Al379      Al  0.35863087  0.63770556  0.81806946     1.90120
O380        O  0.24216117  0.57430888  0.82752376    -0.73240
O381        O  0.24336374  0.68520938  0.80777710    -0.73090
O382        O  0.24711421  0.66479595  0.83252939    -0.78750
O383        O  0.32625480  0.74647023  0.80276626    -0.76950
O384        O  0.32253313  0.67180641  0.81781084    -1.13090
O385        O  0.41869426  0.75397924  0.80822421    -0.72280
C386        C  0.42730385  0.72136577  0.80227657     0.98440
C387        C  0.27519927  0.56905238  0.83406946     0.94830
Al388      Al  0.25113629  0.63410205  0.81760973     1.55560
O389        O  0.41636187  0.68996768  0.82861529    -0.76900
C390        C  0.27627624  0.72550655  0.80128018     0.99000
C391        C  0.26871378  0.57012043  0.80119112     0.93880
O392        O  0.30836482  0.57805574  0.80774192    -0.82220
C393        C  0.84029584  0.20735065  0.71263900     0.03240
C394        C  0.87243206  0.22718404  0.72333796    -0.12900
C395        C  0.90842867  0.21030388  0.72628264     0.00750
C396        C  0.91053794  0.17197884  0.71869214    -0.11430
C397        C  0.88153215  0.15453213  0.70752805     0.03240
C398        C  0.84607396  0.17215469  0.70462988    -0.10850
H399        H  0.87095934  0.25731513  0.72904246     0.08830
H400        H  0.93769532  0.15826834  0.72112632     0.06360
H401        H  0.82576515  0.16173811  0.69573812     0.06210
C402        C  0.13949094  0.36417748  0.77775778     0.03240
C403        C  0.10445549  0.34950374  0.76756220    -0.12900
C404        C  0.06470117  0.29513625  0.76562110     0.00750
C405        C  0.06093391  0.25517311  0.77359735    -0.11430
C406        C  0.09663283  0.26909486  0.78356283     0.03240
C407        C  0.13560286  0.32358059  0.78562377    -0.10850
H408        H  0.10716897  0.38021066  0.76132965     0.08830
H409        H  0.02930849  0.21336592  0.77219334     0.06360
H410        H  0.16171327  0.33450391  0.79365328     0.06210
O411        O  0.09158515  0.02932162  0.64314902    -0.81680
C412        C  0.94674894  0.06012163  0.66883633     0.97670
O413        O  0.99639759  0.08309767  0.66660982    -0.70800
O414        O  0.08937781  0.09300922  0.66191833    -0.74390
Al415      Al  0.02850859  0.08028503  0.65181562     1.48980
C416        C  0.09461233  0.06151406  0.66913099     0.92930
O417        O  0.97971252  0.91567063  0.66366078    -0.80610
O418        O  0.91728284  0.91025904  0.64268326    -0.74170
Al419      Al  0.03140011  0.97582849  0.65323083     1.90120
O420        O  0.91928918  0.93736774  0.66727053    -0.73240
O421        O  0.91839464  0.99971379  0.63700458    -0.73090
O422        O  0.91319802  0.02109529  0.66207157    -0.78750
O423        O  0.97555981  0.08447264  0.64182202    -0.76950
O424        O  0.99413999  0.00861558  0.65231545    -1.13090
O425        O  0.06417669  0.08351998  0.63694817    -0.72280
C426        C  0.09754313  0.06821513  0.63644855     0.98440
C427        C  0.93948989  0.90938356  0.66981687     0.94830
Al428      Al  0.92279977  0.97016625  0.65217855     1.55560
O429        O  0.06460854  0.01110047  0.66815606    -0.76900
C430        C  0.93545913  0.04924037  0.63568337     0.99000
C431        C  0.95206295  0.90376420  0.63709731     0.93880
O432        O  0.00163108  0.93680169  0.63849961    -0.82220
C433        C  0.68821492  0.77747473  0.76451071     0.03240
C434        C  0.63677244  0.76738067  0.76767862    -0.12900
C435        C  0.63027327  0.79210354  0.77827791     0.00750
C436        C  0.67556880  0.82844467  0.78527566    -0.11430
C437        C  0.72653739  0.83827591  0.78214690     0.03240
C438        C  0.73279811  0.81298559  0.77176710    -0.10850
H439        H  0.60187112  0.73795680  0.76244897     0.08350
H440        H  0.67050698  0.84585368  0.79374213     0.06360
H441        H  0.77226151  0.81959670  0.76957040     0.06210
C442        C  0.76473398  0.70603937  0.72415412     0.03240
C443        C  0.80380168  0.74915839  0.71699332    -0.12900
C444        C  0.82762461  0.73999621  0.70663376     0.00750
C445        C  0.81423701  0.68693696  0.70397587    -0.11430
C446        C  0.77709278  0.64351722  0.71144708     0.03240
C447        C  0.75226831  0.65330769  0.72150748    -0.10850
H448        H  0.81440426  0.79006227  0.71926005     0.08830
H449        H  0.82978976  0.67877119  0.69562178     0.06360
H450        H  0.72208146  0.61977953  0.72701332     0.06210
C451        C  0.19904887  0.84603078  0.77573662     0.03240
C452        C  0.21888653  0.87666640  0.76476963    -0.12900
C453        C  0.20412408  0.91422889  0.76166908     0.00750
C454        C  0.16785685  0.91952890  0.76925708    -0.11430
C455        C  0.14824974  0.88988965  0.78033824     0.03240
C456        C  0.16370054  0.85276529  0.78343708    -0.10850
H457        H  0.24740889  0.87300553  0.75895948     0.08830
H458        H  0.15687326  0.94884943  0.76676453     0.06360
H459        H  0.15143752  0.83186257  0.79228728     0.06210
C460        C  0.35481737  0.14541271  0.70990164     0.03240
C461        C  0.31465117  0.14359373  0.70232590    -0.12900
C462        C  0.26018258  0.10429208  0.70417379     0.00750
C463        C  0.24594880  0.06630976  0.71375221    -0.11430
C464        C  0.28542085  0.06804804  0.72155832     0.03240
C465        C  0.33971197  0.10830403  0.71974592    -0.10850
H466        H  0.32597137  0.17168673  0.69464000     0.08830
H467        H  0.20420461  0.03466402  0.71502208     0.06360
H468        H  0.37017495  0.10971261  0.72578582     0.06210
O469        O  0.01383252  0.09441005  0.84465300    -0.81680
C470        C  0.04925335  0.95342706  0.81829349     0.97670
O471        O  0.07066404  0.00318329  0.82045293    -0.70800
O472        O  0.07856833  0.09529120  0.82546263    -0.74390
Al473      Al  0.06761718  0.03472570  0.83534135     1.48980
C474        C  0.04660140  0.10043484  0.81850010     0.92930
O475        O  0.90335191  0.98327208  0.82420610    -0.80610
O476        O  0.89981575  0.91938316  0.84520475    -0.74170
Al477      Al  0.96214508  0.03479324  0.83447990     1.90120
O478        O  0.92359663  0.92136495  0.82040926    -0.73240
O479        O  0.99079376  0.92366736  0.85029294    -0.73090
O480        O  0.01048514  0.91901947  0.82502812    -0.78750
O481        O  0.07399052  0.98281124  0.84514334    -0.76950
O482        O  0.99609533  0.99859751  0.83507527    -1.13090
O483        O  0.07076595  0.07011978  0.85031084    -0.72280
C484        C  0.05241076  0.10099833  0.85144421     0.98440
C485        C  0.89580315  0.94221735  0.81821895     0.94830
Al486      Al  0.95924843  0.92671315  0.83528765     1.55560
O487        O  0.99652425  0.06982945  0.81960426    -0.76900
C488        C  0.04052985  0.94311203  0.85168601     0.99000
C489        C  0.89230534  0.95359348  0.85078438     0.93880
O490        O  0.92373147  0.00352701  0.84918253    -0.82220
O491        O  0.72578952  0.33190749  0.47183994    -0.81680
C492        C  0.60146026  0.38064633  0.50379919     0.97670
O493        O  0.63904157  0.41429719  0.49673571    -0.70800
O494        O  0.72551747  0.41133188  0.50174136    -0.74390
Al495      Al  0.69062542  0.40634084  0.48675278     1.48980
C496        C  0.75513847  0.39221458  0.50366427     0.92930
O497        O  0.65922451  0.26519131  0.50180514    -0.80610
O498        O  0.57691252  0.26022725  0.47270822    -0.74170
Al499      Al  0.69001267  0.29987967  0.48690974     1.90120
O500        O  0.57537129  0.23870164  0.49790309    -0.73240
O501        O  0.57542953  0.34865291  0.47737087    -0.73090
O502        O  0.58217244  0.33080710  0.50234082    -0.78750
O503        O  0.65833222  0.40789704  0.47170670    -0.76950
O504        O  0.65460549  0.33449582  0.48699115    -1.13090
O505        O  0.75154566  0.41513200  0.47710886    -0.72280
C506        C  0.75881577  0.38189894  0.47100081     0.98440
C507        C  0.61013651  0.23533805  0.50428840     0.94830
Al508      Al  0.58321440  0.29761695  0.48750179     1.55560
O509        O  0.74959659  0.35291713  0.49714961    -0.76900
C510        C  0.60828008  0.38823404  0.47060705     0.99000
C511        C  0.59591825  0.23028030  0.47100424     0.93880
O512        O  0.63716955  0.23885051  0.47702183    -0.82220
C513        C  0.46168882  0.49743747  0.54663904     0.03240
C514        C  0.49470630  0.48852561  0.53870665    -0.12900
C515        C  0.50781145  0.44980421  0.54164544     0.00750
C516        C  0.48913466  0.42119599  0.55283109    -0.11430
C517        C  0.45923632  0.43215106  0.56141687     0.03240
C518        C  0.44515057  0.47046442  0.55814533    -0.10850
H519        H  0.50603139  0.50823854  0.52969800     0.08830
H520        H  0.49636818  0.38866650  0.55455675     0.06360
H521        H  0.41965801  0.47769893  0.56420460     0.06210
C522        C  0.30708940  0.20836260  0.61552381     0.03240
C523        C  0.32283440  0.24620031  0.60580092    -0.12900
C524        C  0.37769740  0.28700733  0.60426734     0.00750
C525        C  0.41517498  0.28887723  0.61286993    -0.11430
C526        C  0.40028050  0.24858744  0.62187342     0.03240
C527        C  0.34613495  0.20803038  0.62301263    -0.10850
H528        H  0.29219252  0.24357003  0.59966527     0.08830
H529        H  0.45657749  0.32215657  0.61269676     0.06360
H530        H  0.33363321  0.17709603  0.63008163     0.06210
C531        C  0.96193028  0.56245137  0.55810480     0.03240
C532        C  0.01285323  0.56970579  0.55572721    -0.12900
C533        C  0.02160541  0.54638593  0.54512580     0.00750
C534        C  0.97806361  0.51461408  0.53710914    -0.11430
C535        C  0.92671821  0.50593624  0.53958781     0.03240
C536        C  0.91892558  0.52943345  0.55018331    -0.10850
H537        H  0.04596972  0.59498503  0.56190921     0.08830
H538        H  0.98456793  0.49916731  0.52852027     0.06360
H539        H  0.87924011  0.52248956  0.55221807     0.06210
C540        C  0.89620281  0.63830000  0.60000794     0.03240
C541        C  0.90929719  0.69096596  0.60320624    -0.12900
C542        C  0.88728599  0.69944463  0.61403190     0.00750
C543        C  0.85137186  0.65510972  0.62139545    -0.11430
C544        C  0.83731123  0.60247877  0.61816804     0.03240
C545        C  0.85948516  0.59442678  0.60737600    -0.10850
H546        H  0.93865568  0.72520214  0.59774405     0.08830
H547        H  0.83692112  0.66220978  0.63007573     0.06360
H548        H  0.84925341  0.55385110  0.60485289     0.06210
C549        C  0.51097237  0.97348251  0.54674491     0.03240
C550        C  0.51756934  0.01448860  0.53868043    -0.12900
C551        C  0.55503787  0.06880333  0.54132047     0.00750
C552        C  0.58593153  0.08140990  0.55218553    -0.11430
C553        C  0.58042917  0.04105473  0.56042952     0.03240
C554        C  0.54190880  0.98668735  0.55765565    -0.10850
H555        H  0.49585553  0.00352283  0.52995899     0.08830
H556        H  0.61597702  0.12330659  0.55397041     0.06360
H557        H  0.53600481  0.95447569  0.56380537     0.06210
C558        C  0.81049793  0.12580776  0.61273661     0.03240
C559        C  0.77394650  0.10507626  0.60278052    -0.12900
C560        C  0.73403551  0.11877387  0.60154360     0.00750
C561        C  0.73086707  0.15161283  0.61077537    -0.11430
C562        C  0.77004227  0.17622247  0.62004800     0.03240
C563        C  0.80995144  0.16317020  0.62093845    -0.10850
H564        H  0.77583501  0.07722968  0.59635867     0.08830
H565        H  0.69662850  0.15680794  0.61107588     0.06360
H566        H  0.83861106  0.17927984  0.62852309     0.06210
O567        O  0.65923975  0.40756469  0.68584217    -0.81680
C568        C  0.71987787  0.28568966  0.65699085     0.97670
O569        O  0.75101879  0.32308134  0.66437042    -0.70800
O570        O  0.74895761  0.40915046  0.65871473    -0.74390
Al571      Al  0.73957233  0.37323154  0.67379377     1.48980
C572        C  0.72789940  0.43567575  0.65542767     0.92930
O573        O  0.60161058  0.33558839  0.65564973    -0.80610
O574        O  0.59406422  0.25923631  0.68664726    -0.74170
Al575      Al  0.63236604  0.36954461  0.67088753     1.90120
O576        O  0.57467710  0.25313336  0.66169993    -0.73240
O577        O  0.68263740  0.25746164  0.68274414    -0.73090
O578        O  0.66942236  0.26358995  0.65773187    -0.78750
O579        O  0.73766449  0.34029038  0.68909372    -0.76950
O580        O  0.66840672  0.33585140  0.67235619    -1.13090
O581        O  0.74359327  0.43193496  0.68323269    -0.72280
C582        C  0.70821161  0.43876506  0.68833933     0.98440
C583        C  0.57057956  0.28540194  0.65457992     0.94830
Al584      Al  0.63312849  0.26410553  0.67222338     1.55560
O585        O  0.68626241  0.42900600  0.66095913    -0.76900
C586        C  0.71991029  0.29033717  0.68988777     0.99000
C587        C  0.56294128  0.27742951  0.68735328     0.93880
O588        O  0.57067145  0.31663480  0.68051404    -0.82220
C589        C  0.74195067  0.26540424  0.64776290    -0.05350
C590        C  0.74004437  0.27631485  0.63518508    -0.32780
C591        C  0.75224075  0.24982788  0.62603210     0.36470
C592        C  0.76544514  0.21103866  0.62950161    -0.05710
C593        C  0.77012320  0.20260936  0.64220146    -0.32680
C594        C  0.75889700  0.22993791  0.65131437     0.36380
H595        H  0.72764089  0.30429770  0.63245694     0.16750
O596        O  0.75156784  0.26223542  0.61373738    -0.60180
H597        H  0.77984174  0.17281304  0.64509214     0.16760
O598        O  0.76048419  0.21856909  0.66363488    -0.60270
H599        H  0.79605775  0.24792084  0.66665022     0.43760
H600        H  0.71355282  0.25033380  0.61188082     0.43710
C601        C  0.61674399  0.05734888  0.57153188    -0.05350
C602        C  0.63338011  0.10738589  0.57722641    -0.32780
C603        C  0.67308412  0.12869318  0.58637546     0.36470
C604        C  0.69407622  0.09776066  0.59109911    -0.05710
C605        C  0.67601157  0.04654920  0.58577585    -0.32680
C606        C  0.63915457  0.02708651  0.57586754     0.36380
H607        H  0.61684139  0.13164327  0.57433701     0.16750
O608        O  0.69386921  0.18155236  0.58992727    -0.60180
H609        H  0.69083469  0.02145379  0.58914957     0.16760
O610        O  0.62694601  0.97932378  0.57030870    -0.60270
H611        H  0.65217540  0.98985652  0.56316751     0.43760
H612        H  0.66356508  0.18292805  0.59382484     0.43710
C613        C  0.80576597  0.55715040  0.62693817    -0.05350
C614        C  0.82528384  0.52334875  0.63000323    -0.32780
C615        C  0.79981054  0.48313814  0.63900702     0.36470
C616        C  0.75350619  0.47583476  0.64524965    -0.05710
C617        C  0.73281966  0.50848297  0.64187544    -0.32680
C618        C  0.75866212  0.54902040  0.63283133     0.36380
H619        H  0.86167077  0.52914829  0.62566616     0.16750
O620        O  0.82086949  0.45134538  0.64158904    -0.60180
H621        H  0.69691716  0.50318322  0.64636199     0.16760
O622        O  0.73683427  0.57946379  0.62955862    -0.60270
H623        H  0.74232433  0.60285963  0.63685166     0.43760
H624        H  0.84975643  0.47212032  0.64776071     0.43710
C625        C  0.95301114  0.58967780  0.56873540    -0.05350
C626        C  0.96509800  0.58149244  0.58084101    -0.32780
C627        C  0.94970993  0.60029995  0.59110642     0.36470
C628        C  0.92191629  0.62784668  0.58934459    -0.05710
C629        C  0.91348850  0.63963230  0.57723773    -0.32680
C630        C  0.92885077  0.62078075  0.56696162     0.36380
H631        H  0.98414468  0.55820923  0.58236030     0.16750
O632        O  0.95977769  0.58940028  0.60285908    -0.60180
H633        H  0.89252772  0.66108073  0.57575406     0.16760
O634        O  0.91831222  0.63127607  0.55521813    -0.60270
H635        H  0.95252000  0.66330184  0.55234625     0.43760
H636        H  0.99335229  0.62267780  0.60549264     0.43710
C637        C  0.44165561  0.25043252  0.63025494    -0.05350
C638        C  0.49192905  0.26333104  0.62530173    -0.32780
C639        C  0.53389695  0.27162267  0.63311381     0.36470
C640        C  0.52543810  0.26564384  0.64600343    -0.05710
C641        C  0.47478562  0.25002937  0.65095666    -0.32680
C642        C  0.43302866  0.24287582  0.64321724     0.36380
H643        H  0.49923422  0.26875918  0.61536900     0.16750
O644        O  0.58367688  0.28812517  0.62814510    -0.60180
H645        H  0.46871326  0.24708112  0.66095297     0.16760
O646        O  0.38602821  0.23392603  0.64852661    -0.60270
H647        H  0.36759528  0.19629782  0.65172313     0.43760
H648        H  0.58494570  0.25465248  0.62728652     0.43710
C649        C  0.43964057  0.39974786  0.57315276    -0.05350
C650        C  0.38744086  0.38123240  0.57778095    -0.32780
C651        C  0.36707686  0.34644359  0.58812567     0.36470
C652        C  0.39779537  0.32681911  0.59368013    -0.05710
C653        C  0.45027134  0.34645573  0.58908450    -0.32680
C654        C  0.47183671  0.38386386  0.57938699     0.36380
H655        H  0.36181347  0.39307003  0.57329784     0.16750
O656        O  0.31743414  0.33264900  0.59270631    -0.60180
H657        H  0.47548776  0.33265609  0.59288796     0.16760
O658        O  0.52532950  0.40628152  0.57637138    -0.60270
H659        H  0.52941670  0.37581769  0.57361707     0.43760
H660        H  0.32485194  0.35831535  0.59962875     0.43710
C661        C  0.57836499  0.39878826  0.51363303    -0.05350
C662        C  0.60435523  0.45364442  0.51706621    -0.32780
C663        C  0.58243889  0.47096459  0.52631917     0.36470
C664        C  0.53380580  0.43328292  0.53224011    -0.05710
C665        C  0.50802418  0.37869923  0.52884017    -0.32680
C666        C  0.52951203  0.36131144  0.51963971     0.36380
H667        H  0.64183064  0.48313406  0.51262468     0.16750
O668        O  0.60890397  0.52464494  0.52954128    -0.60180
H669        H  0.47011820  0.34934411  0.53315586     0.16760
O670        O  0.50174553  0.30744917  0.51653846    -0.60270
H671        H  0.47720123  0.30398188  0.50972762     0.43760
H672        H  0.63157088  0.52798448  0.53676477     0.43710
C673        C  0.59469528  0.19504301  0.51441701    -0.05350
C674        C  0.54042100  0.15556684  0.51665895    -0.32780
C675        C  0.52636660  0.11449630  0.52550299     0.36470
C676        C  0.56700548  0.11227054  0.53216976    -0.05710
C677        C  0.62097371  0.15237589  0.53001778    -0.32680
C678        C  0.63490089  0.19392177  0.52157087     0.36380
H679        H  0.50880407  0.15606347  0.51146244     0.16750
O680        O  0.47294906  0.07791616  0.52784108    -0.60180
H681        H  0.65322279  0.15137483  0.53478678     0.16760
O682        O  0.68850563  0.23250121  0.52023611    -0.60270
H683        H  0.69490381  0.26203328  0.52602175     0.43760
H684        H  0.45929295  0.05493092  0.52028969     0.43710
C685        C  0.79824936  0.41902493  0.51315532    -0.05350
C686        C  0.81198481  0.47068837  0.51742048    -0.32780
C687        C  0.85327015  0.49890257  0.52602255     0.36470
C688        C  0.88211405  0.47578910  0.53061566    -0.05710
C689        C  0.86869068  0.42416717  0.52642118    -0.32680
C690        C  0.82707956  0.39573754  0.51776027     0.36380
H691        H  0.79132719  0.49015973  0.51390042     0.16750
O692        O  0.86719014  0.55043461  0.52935350    -0.60180
H693        H  0.89034541  0.40571973  0.52993215     0.16760
O694        O  0.81405954  0.34483332  0.51414815    -0.60270
H695        H  0.84227001  0.35047680  0.50806267     0.43760
H696        H  0.83781238  0.54602344  0.53490880     0.43710
C697        C  0.51434287  0.24877713  0.69534803    -0.05350
C698        C  0.49832701  0.19669957  0.69970826    -0.32780
C699        C  0.44780960  0.16377488  0.70519830     0.36470
C700        C  0.41225904  0.18289903  0.70657099    -0.05710
C701        C  0.42987316  0.23646034  0.70309911    -0.32680
C702        C  0.48033583  0.26929597  0.69751818     0.36380
H703        H  0.52351744  0.17976390  0.69814541     0.16750
O704        O  0.43157350  0.11115054  0.70796687    -0.60180
H705        H  0.40337270  0.25214056  0.70422835     0.16760
O706        O  0.49459387  0.32023162  0.69366599    -0.60270
H707        H  0.51762971  0.34475575  0.70040197     0.43760
H708        H  0.45075346  0.11302650  0.71574040     0.43710
C709        C  0.11901324  0.90419950  0.78947192    -0.05350
C710        C  0.13770506  0.95905568  0.79153534    -0.32780
C711        C  0.11446033  0.97524557  0.80056255     0.36470
C712        C  0.07160837  0.93629012  0.80803094    -0.05710
C713        C  0.05181718  0.88113326  0.80579352    -0.32680
C714        C  0.07492716  0.86496114  0.79655438     0.36380
H715        H  0.17185973  0.99014515  0.78635691     0.16750
O716        O  0.13436736  0.02961336  0.80194696    -0.60180
H717        H  0.01868034  0.85041474  0.81128165     0.16760
O718        O  0.05418511  0.81080499  0.79457250    -0.60270
H719        H  0.02860308  0.80106448  0.78757516     0.43760
H720        H  0.16612352  0.04297096  0.80745736     0.43710
C721        C  0.23042966  0.95251044  0.75129462    -0.05350
C722        C  0.21861429  0.93442395  0.73896880    -0.32780
C723        C  0.23792571  0.97162783  0.72913933     0.36470
C724        C  0.26951583  0.02764526  0.73162051    -0.05710
C725        C  0.28369730  0.04531712  0.74393333    -0.32680
C726        C  0.26430313  0.00819323  0.75373651     0.36380
H727        H  0.19286099  0.89163246  0.73700333     0.16750
O728        O  0.22476861  0.95296997  0.71716332    -0.60180
H729        H  0.30816686  0.08816565  0.74598310     0.16760
O730        O  0.27704433  0.02680419  0.76572906    -0.60270
H731        H  0.30805504  0.02304021  0.76794295     0.43760
H732        H  0.25589287  0.95104658  0.71402896     0.43710
C733        C  0.75927971  0.58750990  0.70765822    -0.05350
C734        C  0.70423589  0.55045459  0.70588468    -0.32780
C735        C  0.68658029  0.50020378  0.70038618     0.36470
C736        C  0.72443430  0.48630508  0.69644782    -0.05710
C737        C  0.77927678  0.52202864  0.69905859    -0.32680
C738        C  0.79674006  0.57219076  0.70464417     0.36380
H739        H  0.67488387  0.56165238  0.70813278     0.16750
O740        O  0.63254477  0.46694275  0.69811197    -0.60180
H741        H  0.80908390  0.51214493  0.69629573     0.16760
O742        O  0.85073826  0.60684491  0.70667362    -0.60270
H743        H  0.85649619  0.60116681  0.71548816     0.43760
H744        H  0.61802726  0.44299292  0.70549112     0.43710
C745        C  0.77090402  0.86635056  0.79102867    -0.05350
C746        C  0.78310118  0.83510524  0.79866800    -0.32780
C747        C  0.82333414  0.85959149  0.80761635     0.36470
C748        C  0.85262404  0.91639561  0.80891958    -0.05710
C749        C  0.84002743  0.94774481  0.80132569    -0.32680
C750        C  0.79947321  0.92292447  0.79233245     0.36380
H751        H  0.76059673  0.79138823  0.79781522     0.16750
O752        O  0.83284260  0.82745530  0.81523760    -0.60180
H753        H  0.86211773  0.99140169  0.80225153     0.16760
O754        O  0.78798078  0.95405344  0.78488903    -0.60270
H755        H  0.80990967  0.96076036  0.77726149     0.43760
H756        H  0.81156242  0.82257336  0.82288854     0.43710
C757        C  0.69664606  0.74961637  0.75405862    -0.05350
C758        C  0.69276266  0.76391748  0.74185463    -0.32780
C759        C  0.71276482  0.74793979  0.73192632     0.36470
C760        C  0.73640548  0.71669616  0.73418848    -0.05710
C761        C  0.73602829  0.69863856  0.74629930    -0.32680
C762        C  0.71675840  0.71530526  0.75623084     0.36380
H763        H  0.67704384  0.79004095  0.74009547     0.16750
O764        O  0.70924804  0.76306718  0.72004018    -0.60180
H765        H  0.75334301  0.67399884  0.74815743     0.16760
O766        O  0.71882042  0.69901546  0.76808923    -0.60270
H767        H  0.75687139  0.72235851  0.77071945     0.43760
H768        H  0.73574264  0.80251836  0.71960456     0.43710
C769        C  0.21902107  0.09982052  0.69531612    -0.05350
C770        C  0.22900346  0.10115500  0.68247903    -0.32780
C771        C  0.18959514  0.09269451  0.67383844     0.36470
C772        C  0.13920145  0.08235446  0.67795897    -0.05710
C773        C  0.12937610  0.08263054  0.69071501    -0.32680
C774        C  0.16909503  0.09167361  0.69941599     0.36380
H775        H  0.26669666  0.10650322  0.67911764     0.16750
O776        O  0.19910130  0.09035689  0.66140729    -0.60180
H777        H  0.09032131  0.07412139  0.69393512     0.16760
O778        O  0.15914272  0.09315084  0.71185963    -0.60270
H779        H  0.13166172  0.05539805  0.71414552     0.43760
H780        H  0.22157139  0.12859656  0.65871529     0.43710
C781        C  0.91347114  0.86783229  0.67974706    -0.05350
C782        C  0.93363429  0.83456433  0.68299147    -0.32780
C783        C  0.90695798  0.79313282  0.69187090     0.36470
C784        C  0.85947227  0.78467336  0.69766973    -0.05710
C785        C  0.84003453  0.81842403  0.69451853    -0.32680
C786        C  0.86628469  0.85946934  0.68578000     0.36380
H787        H  0.96986142  0.84031584  0.67858536     0.16750
O788        O  0.92850582  0.76242300  0.69511427    -0.60180
H789        H  0.80312907  0.81222983  0.69864188     0.16760
O790        O  0.84483649  0.89095695  0.68322998    -0.60270
H791        H  0.81693756  0.87073200  0.67681713     0.43760
H792        H  0.92289056  0.73909685  0.68779961     0.43710
C793        C  0.90303074  0.06488717  0.62841052    -0.05350
C794        C  0.92569182  0.10329282  0.61881893    -0.32780
C795        C  0.89462786  0.12086748  0.61278024     0.36470
C796        C  0.84099126  0.10054242  0.61653903    -0.05710
C797        C  0.81831134  0.06128017  0.62589267    -0.32680
C798        C  0.84889237  0.04365506  0.63186023     0.36380
H799        H  0.96748262  0.12019400  0.61619007     0.16750
O800        O  0.91764168  0.15966902  0.60370657    -0.60180
H801        H  0.77746152  0.04643657  0.62905505     0.16760
O802        O  0.82646293  0.00807235  0.64160556    -0.60270
H803        H  0.83336421  0.03101038  0.64906905     0.43760
H804        H  0.90772356  0.13933439  0.59575150     0.43710
C805        C  0.25042724  0.17458459  0.61951670    -0.05350
C806        C  0.21481982  0.12519007  0.61363476    -0.32780
C807        C  0.16401530  0.08937572  0.61892735     0.36470
C808        C  0.14880593  0.10355398  0.63005843    -0.05710
C809        C  0.18363031  0.15371155  0.63559066    -0.32680
C810        C  0.23431166  0.18873091  0.63052336     0.36380
H811        H  0.22714729  0.11370773  0.60523401     0.16750
O812        O  0.12952247  0.04130076  0.61313252    -0.60180
H813        H  0.17207659  0.16509283  0.64413948     0.16760
O814        O  0.26852335  0.23647876  0.63651816    -0.60270
H815        H  0.28432793  0.22657850  0.64342301     0.43760
H816        H  0.13659307  0.01450131  0.61699850     0.43710
C817        C  0.90713601  0.75430318  0.61897227    -0.05350
C818        C  0.93277585  0.76744428  0.63055828    -0.32780
C819        C  0.94746833  0.81630382  0.63633191     0.36470
C820        C  0.93596810  0.85287221  0.63063453    -0.05710
C821        C  0.91092376  0.84050720  0.61895655    -0.32680
C822        C  0.89698501  0.79149310  0.61302515     0.36380
H823        H  0.94063000  0.73911051  0.63525483     0.16750
O824        O  0.97107979  0.82703530  0.64784755    -0.60180
H825        H  0.90233976  0.86870505  0.61447333     0.16760
O826        O  0.87137410  0.77920964  0.60175230    -0.60270
H827        H  0.90071203  0.79446995  0.59546758     0.43760
H828        H  0.01026391  0.84454236  0.64619414     0.43710
C829        C  0.06687719  0.14560319  0.80983047    -0.05350
C830        C  0.07486184  0.13845187  0.79729576    -0.32780
C831        C  0.08616635  0.17912353  0.78861652     0.36470
C832        C  0.08963596  0.22739581  0.79254967    -0.05710
C833        C  0.08335096  0.23486883  0.80520924    -0.32680
C834        C  0.07160272  0.19414152  0.81381141     0.36380
H835        H  0.07084142  0.10082622  0.79420174     0.16750
O836        O  0.09450400  0.17184864  0.77637572    -0.60180
H837        H  0.08540705  0.27152623  0.80835874     0.16760
O838        O  0.06323836  0.20141214  0.82605145    -0.60270
H839        H  0.02396011  0.18667830  0.82679144     0.43760
H840        H  0.05838845  0.14519036  0.77305525     0.43710
C841        C  0.80556562  0.22832481  0.70890013    -0.05350
C842        C  0.82717214  0.28438871  0.70841831    -0.32780
C843        C  0.79802517  0.30549157  0.70313947     0.36470
C844        C  0.74635392  0.27021197  0.69813997    -0.05710
C845        C  0.72326799  0.21410120  0.69952276    -0.32680
C846        C  0.75252650  0.19308771  0.70478742     0.36380
H847        H  0.86801325  0.31208146  0.71150990     0.16750
O848        O  0.82236531  0.36056481  0.70203987    -0.60180
H849        H  0.68329020  0.18616693  0.69597492     0.16760
O850        O  0.72918409  0.13804947  0.70581978    -0.60270
H851        H  0.72716632  0.12470705  0.69720905     0.43760
H852        H  0.81162165  0.37225696  0.70962948     0.43710
C853        C  0.92872794  0.08074000  0.67926199    -0.05350
C854        C  0.87377711  0.06196423  0.68109170    -0.32780
C855        C  0.85709569  0.08427626  0.69044637     0.36470
C856        C  0.89572499  0.12606834  0.69812070    -0.05710
C857        C  0.95031290  0.14350796  0.69643493    -0.32680
C858        C  0.96681816  0.12080035  0.68736986     0.36380
H859        H  0.84367441  0.03046101  0.67517307     0.16750
O860        O  0.80309670  0.06397168  0.69224647    -0.60180
H861        H  0.98108057  0.17611739  0.70201210     0.16760
O862        O  0.02080604  0.13926830  0.68642428    -0.60270
H863        H  0.02651768  0.11482382  0.69178360     0.43760
H864        H  0.79102669  0.07512358  0.68482649     0.43710
C865        C  0.94851843  0.23653615  0.73636327    -0.05350
C866        C  0.00289402  0.25473768  0.73379147    -0.32780
C867        C  0.04142090  0.27567828  0.74321045     0.36470
C868        C  0.02604934  0.27929895  0.75537906    -0.05710
C869        C  0.97230070  0.26295480  0.75795714    -0.32680
C870        C  0.93356875  0.24212387  0.74850198     0.36380
H871        H  0.01538706  0.25172867  0.72446087     0.16750
O872        O  0.09367056  0.29093895  0.74052965    -0.60180
H873        H  0.96018915  0.26519306  0.76738060     0.16760
O874        O  0.88083475  0.22418070  0.75137169    -0.60270
H875        H  0.87916278  0.25737592  0.75239421     0.43760
H876        H  0.09563259  0.25815136  0.74198926     0.43710
C877        C  0.47848491  0.74078382  0.79576546    -0.05350
C878        C  0.48826885  0.76358718  0.78383141    -0.32780
C879        C  0.53714257  0.77922336  0.77770200     0.36470
C880        C  0.57653520  0.77278314  0.78368617    -0.05710
C881        C  0.56596251  0.74942555  0.79554586    -0.32680
C882        C  0.51756986  0.73357648  0.80156927     0.36380
H883        H  0.45805384  0.76877710  0.77927289     0.16750
O884        O  0.54682315  0.80235109  0.76613364    -0.60180
H885        H  0.59574196  0.74381823  0.80021267     0.16760
O886        O  0.50867742  0.71080176  0.81317820    -0.60270
H887        H  0.52390923  0.74173909  0.81905685     0.43760
H888        H  0.53099122  0.77153892  0.76022079     0.43710
C889        C  0.25650590  0.75142481  0.79269748    -0.05350
C890        C  0.29318421  0.80322250  0.78797412    -0.32780
C891        C  0.27515477  0.83326468  0.78175351     0.36470
C892        C  0.21956868  0.81159295  0.78010988    -0.05710
C893        C  0.18304901  0.75859694  0.78410087    -0.32680
C894        C  0.20104710  0.72836972  0.79026673     0.36380
H895        H  0.33595777  0.82202801  0.78971603     0.16750
O896        O  0.31181720  0.88566122  0.77841439    -0.60180
H897        H  0.14016386  0.74132791  0.78282618     0.16760
O898        O  0.16371612  0.67749013  0.79440675    -0.60270
H899        H  0.16275125  0.65254239  0.78792380     0.43760
H900        H  0.32897416  0.88288058  0.77068196     0.43710
C901        C  0.17689639  0.42161243  0.78110342    -0.05350
C902        C  0.22961517  0.43849257  0.78486967    -0.32780
C903        C  0.26196136  0.48867879  0.79062315     0.36470
C904        C  0.24166110  0.52302042  0.79270323    -0.05710
C905        C  0.19069281  0.50797284  0.78793876    -0.32680
C906        C  0.15829117  0.45772550  0.78225192     0.36380
H907        H  0.24481017  0.41145747  0.78389955     0.16750
O908        O  0.31186430  0.50198636  0.79485154    -0.60180
H909        H  0.17402675  0.53351964  0.78937502     0.16760
O910        O  0.10644918  0.44212344  0.77911076    -0.60270
H911        H  0.10960173  0.46147094  0.77125200     0.43760
H912        H  0.33739368  0.52510657  0.78825120     0.43710
C913        C  0.09302775  0.85295483  0.87267203    -0.05350
C914        C  0.13082016  0.90560929  0.86865915    -0.32780
C915        C  0.11436147  0.93713906  0.86250677     0.36470
C916        C  0.05912083  0.91600882  0.86021934    -0.05710
C917        C  0.02123037  0.86479890  0.86502463    -0.32680
C918        C  0.03771797  0.83326746  0.87114914     0.36380
H919        H  0.17352054  0.92149575  0.86984612     0.16750
O920        O  0.15289995  0.98724256  0.85820088    -0.60180
H921        H  0.97856618  0.84746488  0.86338590     0.16760
O922        O  0.99966688  0.78127023  0.87445595    -0.60270
H923        H  0.98227665  0.78477136  0.88206527     0.43760
H924        H  0.15560159  0.01303933  0.86467102     0.43710
C925        C  0.19396810  0.76091526  0.86314948    -0.05350
C926        C  0.17503549  0.70623626  0.86073714    -0.32780
C927        C  0.19961939  0.69088795  0.85190655     0.36470
C928        C  0.24344425  0.73051068  0.84480463    -0.05710
C929        C  0.26338798  0.78546982  0.84734427    -0.32680
C930        C  0.23903747  0.80085783  0.85645523     0.36380
H931        H  0.13986177  0.67462323  0.86553866     0.16750
O932        O  0.17908784  0.63662647  0.85011957    -0.60180
H933        H  0.29759836  0.81665041  0.84219957     0.16760
O934        O  0.26045037  0.85475692  0.85899914    -0.60270
H935        H  0.25281206  0.86990830  0.85156476     0.43760
H936        H  0.19828057  0.62681982  0.85617882     0.43710
C937        C  0.03331306  0.62478190  0.91878302    -0.05350
C938        C  0.02903354  0.60890985  0.90634030    -0.32780
C939        C  0.04927821  0.64771035  0.89688284     0.36470
C940        C  0.07432570  0.70325157  0.89984868    -0.05710
C941        C  0.07513318  0.71874842  0.91223827    -0.32680
C942        C  0.05523002  0.67986754  0.92171240     0.36380
H943        H  0.01225032  0.56665519  0.90401002     0.16750
O944        O  0.04636580  0.63115382  0.88478907    -0.60180
H945        H  0.09371262  0.76116952  0.91462778     0.16760
O946        O  0.05837319  0.69601777  0.93384962    -0.60270
H947        H  0.09538410  0.70735358  0.93655571     0.43760
H948        H  0.01461239  0.63058055  0.88124125     0.43710
C949        C  0.74358849  0.90581768  0.86935575    -0.05350
C950        C  0.77808861  0.89024186  0.87441655    -0.32780
C951        C  0.82709168  0.90489502  0.86847115     0.36470
C952        C  0.84200872  0.93630775  0.85757737    -0.05710
C953        C  0.80800108  0.95272388  0.85276106    -0.32680
C954        C  0.75889788  0.93717120  0.85845268     0.36380
H955        H  0.76642776  0.86578999  0.88277181     0.16750
O956        O  0.86057158  0.88976280  0.87352147    -0.60180
H957        H  0.81915436  0.97692280  0.84435655     0.16760
O958        O  0.72601806  0.95301068  0.85333672    -0.60270
H959        H  0.70683822  0.92709090  0.84646937     0.43760
H960        H  0.85059881  0.85507969  0.86939981     0.43710
C961        C  0.54685001  0.80631077  0.86243178    -0.05350
C962        C  0.51526847  0.82825533  0.85933181    -0.32780
C963        C  0.47390600  0.80311918  0.85066630     0.36470
C964        C  0.46301149  0.75457361  0.84482259    -0.05710
C965        C  0.49407734  0.73199158  0.84808372    -0.32680
C966        C  0.53558758  0.75738048  0.85684702     0.36380
H967        H  0.52372558  0.86625389  0.86337476     0.16750
O968        O  0.44507939  0.82718744  0.84788494    -0.60180
H969        H  0.48648857  0.69476652  0.84377709     0.16760
O970        O  0.56493684  0.73414197  0.85984641    -0.60270
H971        H  0.54750678  0.71252614  0.86743770     0.43760
H972        H  0.46561627  0.85323967  0.84112354     0.43710
C973        C  0.62142193  0.92604817  0.89909082    -0.05350
C974        C  0.62965282  0.91589633  0.91135743    -0.32780
C975        C  0.60958530  0.93165454  0.92131951     0.36470
C976        C  0.58065291  0.95775841  0.91905441    -0.05710
C977        C  0.57633652  0.97174019  0.90682149    -0.32680
C978        C  0.59646126  0.95605322  0.89687501     0.36380
H979        H  0.64894398  0.89306268  0.91318158     0.16750
O980        O  0.61658954  0.91945369  0.93321883    -0.60180
H981        H  0.55484155  0.99233870  0.90492287     0.16760
O982        O  0.58876362  0.96743224  0.88495235    -0.60270
H983        H  0.62316549  0.00046520  0.88258607     0.43760
H984        H  0.64832478  0.95303717  0.93643356     0.43710
C985        C  0.14341434  0.24928402  0.87173937    -0.05350
C986        C  0.08968278  0.23057548  0.86856704    -0.32780
C987        C  0.05807418  0.18065104  0.86262821     0.36470
C988        C  0.08006696  0.14832535  0.85984993    -0.05710
C989        C  0.13258428  0.16542456  0.86388937    -0.32680
C990        C  0.16426080  0.21550917  0.86973261     0.36380
H991        H  0.07298840  0.25600464  0.87017165     0.16750
O992        O  0.00624255  0.16451034  0.85934571    -0.60180
H993        H  0.15064977  0.14159388  0.86180652     0.16760
O994        O  0.21717937  0.23334010  0.87227021    -0.60270
H995        H  0.21643932  0.21497061  0.88011128     0.43760
H996        H  0.00955793  0.18477247  0.85162939     0.43710
C997        C  0.25645299  0.52371360  0.84271851    -0.05350
C998        C  0.22416888  0.51845599  0.85298984    -0.32780
C999        C  0.21151333  0.47827163  0.86192377     0.36470
C1000       C  0.22993585  0.44223811  0.86033290    -0.05710
C1001       C  0.26044147  0.44639383  0.84982550    -0.32680
C1002       C  0.27430064  0.48723121  0.84111841     0.36380
H1003       H  0.21052677  0.54659468  0.85429634     0.16750
O1004       O  0.18126546  0.47441706  0.87213587    -0.60180
H1005       H  0.27467137  0.41867467  0.84855018     0.16760
O1006       O  0.30477600  0.49088049  0.83095525    -0.60270
H1007       H  0.34270156  0.51238919  0.83379628     0.43760
H1008       H  0.20775218  0.49787139  0.87852487     0.43710
C1009       C  0.36456258  0.43400103  0.91809853    -0.05350
C1010       C  0.30939499  0.39979035  0.92060617    -0.32780
C1011       C  0.27194320  0.37874407  0.91089254     0.36470
C1012       C  0.28949907  0.39308403  0.89851218    -0.05710
C1013       C  0.34486769  0.42649605  0.89602351    -0.32680
C1014       C  0.38234994  0.44645142  0.90570465     0.36380
H1015       H  0.29535647  0.38974735  0.93013253     0.16750
O1016       O  0.21811042  0.34685963  0.91362156    -0.60180
H1017       H  0.35899976  0.43766778  0.88653100     0.16760
O1018       O  0.43596366  0.48043905  0.90302409    -0.60270
H1019       H  0.44961436  0.45627580  0.90090864     0.43760
H1020       H  0.21207046  0.31035486  0.91523286     0.43710
C1021       C  0.46149412  0.88770775  0.95645854    -0.05350
C1022       C  0.48280102  0.85612541  0.96013683    -0.32780
C1023       C  0.45699084  0.81556132  0.96905513     0.36470
C1024       C  0.40842075  0.80552315  0.97465223    -0.05710
C1025       C  0.38637496  0.83642294  0.97080090    -0.32680
C1026       C  0.41253577  0.87730303  0.96180459     0.36380
H1027       H  0.52063691  0.86368420  0.95628036     0.16750
O1028       O  0.48000820  0.78606402  0.97217527    -0.60180
H1029       H  0.34883639  0.82909373  0.97478546     0.16760
O1030       O  0.38898235  0.90544947  0.95796433    -0.60270
H1031       H  0.39250233  0.92898668  0.96507662     0.43760
H1032       H  0.50639517  0.80728507  0.97879338     0.43710
C1033       C  0.39881484  0.59585997  0.97551014    -0.05350
C1034       C  0.41312666  0.55844445  0.97897071    -0.32780
C1035       C  0.42599603  0.53198660  0.96993659     0.36470
C1036       C  0.42536898  0.54359483  0.95718285    -0.05710
C1037       C  0.41279735  0.58276503  0.95382466    -0.32680
C1038       C  0.39911977  0.60845628  0.96288981     0.36380
H1039       H  0.41129431  0.54739067  0.98866935     0.16750
O1040       O  0.43409848  0.49132941  0.97360481    -0.60180
H1041       H  0.41220099  0.59244184  0.94411939     0.16760
O1042       O  0.38371734  0.64393862  0.95930298    -0.60270
H1043       H  0.41667569  0.68033071  0.95999923     0.43760
H1044       H  0.46945315  0.50969711  0.97788260     0.43710
C1045       C  0.18699225  0.59861322  0.97131876    -0.05350
C1046       C  0.14647899  0.54412275  0.96962072    -0.32780
C1047       C  0.10406857  0.52961984  0.96121250     0.36470
C1048       C  0.10142666  0.57007545  0.95446422    -0.05710
C1049       C  0.14318774  0.62414611  0.95588469    -0.32680
C1050       C  0.18599380  0.63839311  0.96389652     0.36380
H1051       H  0.14684738  0.51274777  0.97502450     0.16750
O1052       O  0.06626592  0.47590063  0.95944393    -0.60180
H1053       H  0.14223488  0.65638870  0.95102320     0.16760
O1054       O  0.22553430  0.69205781  0.96470080    -0.60270
H1055       H  0.25410465  0.69665823  0.95884542     0.43760
H1056       H  0.04575964  0.46340612  0.96736627     0.43710
C1057       C  0.73289082  0.26578984  0.14330277    -0.05350
C1058       C  0.78459625  0.30559585  0.13912440    -0.32780
C1059       C  0.81240175  0.29382773  0.13027246     0.36470
C1060       C  0.78891674  0.24133974  0.12533633    -0.05710
C1061       C  0.73760893  0.20099169  0.12959248    -0.32680
C1062       C  0.70959691  0.21285297  0.13851693     0.36380
H1063       H  0.80419782  0.34634746  0.14282786     0.16750
O1064       O  0.86368917  0.33334914  0.12691805    -0.60180
H1065       H  0.71895137  0.16034911  0.12585935     0.16760
O1066       O  0.65898008  0.17297035  0.14214275    -0.60270
H1067       H  0.66477971  0.15425981  0.14913256     0.43760
H1068       H  0.85932355  0.35879616  0.12160212     0.43710
C1069       C  0.16050316  0.56361698  0.02071117    -0.05350
C1070       C  0.11800513  0.52615619  0.01334124    -0.32780
C1071       C  0.06839981  0.48891717  0.01861549     0.36470
C1072       C  0.05972225  0.48958651  0.03157428    -0.05710
C1073       C  0.10333370  0.52597742  0.03908644    -0.32680
C1074       C  0.15385384  0.56253771  0.03370818     0.36380
H1075       H  0.12368551  0.52487391  0.00339075     0.16750
O1076       O  0.02903680  0.45042338  0.01106955    -0.60180
H1077       H  0.09797707  0.52680597  0.04904356     0.16760
O1078       O  0.19634067  0.59650046  0.04118648    -0.60270
H1079       H  0.19640616  0.63081527  0.04139391     0.43760
H1080       H  0.02189857  0.47073757  0.00471415     0.43710
C1081       C  0.88405848  0.28229688  0.08402944    -0.05350
C1082       C  0.93387226  0.29717835  0.07840783    -0.32780
C1083       C  0.95200501  0.32963507  0.06760901     0.36470
C1084       C  0.92147692  0.35030182  0.06244658    -0.05710
C1085       C  0.87205578  0.33554784  0.06822503    -0.32680
C1086       C  0.85249591  0.30070659  0.07846434     0.36380
H1087       H  0.95909342  0.28364608  0.08236801     0.16750
O1088       O  0.99899696  0.33964757  0.06212370    -0.60180
H1089       H  0.84734177  0.35061224  0.06477013     0.16760
O1090       O  0.80081808  0.28229773  0.08247392    -0.60270
H1091       H  0.80061833  0.31469833  0.08545568     0.43760
H1092       H  0.98782053  0.31140608  0.05562839     0.43710
C1093       C  0.51084649  0.24297313  0.14192921    -0.05350
C1094       C  0.47849537  0.26411888  0.13872642    -0.32780
C1095       C  0.43875601  0.23943035  0.12949194     0.36470
C1096       C  0.43093921  0.19285378  0.12325433    -0.05710
C1097       C  0.46465363  0.17312356  0.12612580    -0.32680
C1098       C  0.50409023  0.19747453  0.13528853     0.36380
H1099       H  0.48353331  0.29955836  0.14346742     0.16750
O1100       O  0.40873538  0.26187310  0.12638687    -0.60180
H1101       H  0.45916117  0.13713131  0.12156885     0.16760
O1102       O  0.53531868  0.17569966  0.13771501    -0.60270
H1103       H  0.51448826  0.14650294  0.14385826     0.43760
H1104       H  0.38572988  0.25642158  0.13374728     0.43710
C1105       C  0.39913279  0.91208797  0.03454040    -0.05350
C1106       C  0.41828251  0.88051450  0.03964263    -0.32780
C1107       C  0.40489081  0.83085667  0.03415386     0.36470
C1108       C  0.37083391  0.81203385  0.02373433    -0.05710
C1109       C  0.35054454  0.84296854  0.01893863    -0.32680
C1110       C  0.36513556  0.89296734  0.02411801     0.36380
H1111       H  0.44488513  0.89518821  0.04760858     0.16750
O1112       O  0.42423657  0.80068079  0.03914560    -0.60180
H1113       H  0.32472800  0.82914779  0.01082028     0.16760
O1114       O  0.34626207  0.92321465  0.01889322    -0.60270
H1115       H  0.37037728  0.94184144  0.01170172     0.43760
H1116       H  0.45888529  0.81297699  0.03479348     0.43710
C1117       C  0.35660400  0.07495255  0.08566610    -0.05350
C1118       C  0.33986030  0.08015797  0.07380568    -0.32780
C1119       C  0.35463467  0.06232263  0.06323549     0.36470
C1120       C  0.38622941  0.03853156  0.06445111    -0.05710
C1121       C  0.39974544  0.02988889  0.07635581    -0.32680
C1122       C  0.38522073  0.04794562  0.08692228     0.36380
H1123       H  0.31748606  0.10037591  0.07268947     0.16750
O1124       O  0.33992850  0.07032298  0.05170316    -0.60180
H1125       H  0.42378865  0.01142028  0.07742074     0.16760
O1126       O  0.40080549  0.04069556  0.09842058    -0.60270
H1127       H  0.36915564  0.00729060  0.10175439     0.43760
H1128       H  0.30684516  0.03555544  0.04958096     0.43710
C1129       C  0.73239795  0.54784434  0.12435817    -0.05350
C1130       C  0.67873771  0.50814528  0.12690157    -0.32780
C1131       C  0.66580008  0.46677886  0.13533734     0.36470
C1132       C  0.70688618  0.46531390  0.14207020    -0.05710
C1133       C  0.76085674  0.50450004  0.13944838    -0.32680
C1134       C  0.77383029  0.54539976  0.13061453     0.36380
H1135       H  0.64597980  0.50934312  0.12245161     0.16750
O1136       O  0.61227110  0.42880627  0.13710021    -0.60180
H1137       H  0.79308688  0.50376456  0.14429950     0.16760
O1138       O  0.82694431  0.58150900  0.12785469    -0.60270
H1139       H  0.84200218  0.60466307  0.13534627     0.43760
H1140       H  0.60424845  0.39939188  0.13111630     0.43710
C1141       C  0.45723180  0.55901539  0.03915889    -0.05350
C1142       C  0.40574597  0.52123973  0.03460823    -0.32780
C1143       C  0.37434687  0.53824346  0.02863246     0.36470
C1144       C  0.39441611  0.59398704  0.02708071    -0.05710
C1145       C  0.44351201  0.63150301  0.03276498    -0.32680
C1146       C  0.47491600  0.61445845  0.03871822     0.36380
H1147       H  0.39132848  0.47837310  0.03497640     0.16750
O1148       O  0.32592796  0.49998371  0.02360686    -0.60180
H1149       H  0.45984621  0.67457145  0.03178585     0.16760
O1150       O  0.52549328  0.65263644  0.04273148    -0.60270
H1151       H  0.51997365  0.66391754  0.05104969     0.43760
H1152       H  0.29841918  0.49536892  0.02979105     0.43710
C1153       C  0.60657350  0.56588975  0.06501574    -0.05350
C1154       C  0.62415452  0.61642900  0.07061921    -0.32780
C1155       C  0.65993911  0.63455153  0.08074475     0.36470
C1156       C  0.68096382  0.60312506  0.08515954    -0.05710
C1157       C  0.66356145  0.55297076  0.07940952    -0.32680
C1158       C  0.62566561  0.53353425  0.06983661     0.36380
H1159       H  0.61019816  0.64217005  0.06716055     0.16750
O1160       O  0.67289452  0.68242006  0.08636607    -0.60180
H1161       H  0.67875461  0.52768533  0.08241865     0.16760
O1162       O  0.60517949  0.48137714  0.06575224    -0.60270
H1163       H  0.63602741  0.48042892  0.06204445     0.43760
H1164       H  0.64730514  0.67213849  0.09342530     0.43710
C1165       C  0.58503295  0.42155217  0.00570736    -0.05350
C1166       C  0.53201716  0.39636900  0.01028601    -0.32780
C1167       C  0.51788662  0.42210253  0.01929683     0.36470
C1168       C  0.55697834  0.47373659  0.02375189    -0.05710
C1169       C  0.60915864  0.49953687  0.01882803    -0.32680
C1170       C  0.62332200  0.47427573  0.00988080     0.36380
H1171       H  0.50192946  0.35619657  0.00713866     0.16750
O1172       O  0.46633895  0.39591593  0.02392655    -0.60180
H1173       H  0.63934750  0.53968677  0.02198548     0.16760
O1174       O  0.67506359  0.50175101  0.00534532    -0.60270
H1175       H  0.67350245  0.51992696  0.99768432     0.43760
H1176       H  0.46728076  0.37649199  0.03141942     0.43710
C1177       C  0.55387201  0.19260602  0.00828195    -0.05350
C1178       C  0.57333972  0.15880803  0.01155542    -0.32780
C1179       C  0.54623340  0.11746961  0.02037524     0.36470
C1180       C  0.49891744  0.10950427  0.02613301    -0.05710
C1181       C  0.48040387  0.14421403  0.02312873    -0.32680
C1182       C  0.50717287  0.18526433  0.01434097     0.36380
H1183       H  0.60946502  0.16403964  0.00720687     0.16750
O1184       O  0.56719689  0.08621012  0.02360864    -0.60180
H1185       H  0.44389482  0.13856876  0.02735990     0.16760
O1186       O  0.48678540  0.21761814  0.01173277    -0.60270
H1187       H  0.45946694  0.19816205  0.00516196     0.43760
H1188       H  0.56181465  0.06320254  0.01624475     0.43710
C1189       C  0.78551671  0.39372639  0.00749691    -0.05350
C1190       C  0.82937491  0.39089375  0.00318064    -0.32780
C1191       C  0.86946579  0.39736227  0.01134065     0.36470
C1192       C  0.86586771  0.40688055  0.02406431    -0.05710
C1193       C  0.82173117  0.40980547  0.02841300    -0.32680
C1194       C  0.78147264  0.40322994  0.02015970     0.36380
H1195       H  0.83149954  0.38156004  0.99349107     0.16750
O1196       O  0.91006533  0.39051426  0.00700371    -0.60180
H1197       H  0.81845911  0.41688425  0.03819036     0.16760
O1198       O  0.73750357  0.40392998  0.02459819    -0.60270
H1199       H  0.74544398  0.44113777  0.02299633     0.43760
H1200       H  0.92845011  0.41800698  0.00037539     0.43710
C1201       C  0.79893866  0.41503392  0.95827665    -0.05350
C1202       C  0.83378974  0.39500827  0.95759702    -0.32780
C1203       C  0.88487281  0.42559020  0.95206112     0.36470
C1204       C  0.90198430  0.47727352  0.94712289    -0.05710
C1205       C  0.86596149  0.49584172  0.94718843    -0.32680
C1206       C  0.81490624  0.46524318  0.95255271     0.36380
H1207       H  0.82221001  0.35625291  0.96170258     0.16750
O1208       O  0.91754179  0.40439849  0.95136446    -0.60180
H1209       H  0.87817769  0.53550499  0.94354153     0.16760
O1210       O  0.78246786  0.48673701  0.95277902    -0.60270
H1211       H  0.76016165  0.47278462  0.94516515     0.43760
H1212       H  0.92812738  0.40306238  0.96005826     0.43710
C1213       C  0.57907662  0.18300418  0.95700598    -0.05350
C1214       C  0.61863199  0.17486416  0.95164527    -0.32780
C1215       C  0.60501291  0.12578467  0.94603609     0.36470
C1216       C  0.55069147  0.08354151  0.94548737    -0.05710
C1217       C  0.51066994  0.09306810  0.94992421    -0.32680
C1218       C  0.52441649  0.14225256  0.95563365     0.36380
H1219       H  0.66100129  0.20539863  0.95247910     0.16750
O1220       O  0.64561929  0.11771984  0.94235525    -0.60180
H1221       H  0.46860075  0.06128164  0.94945701     0.16760
O1222       O  0.48424116  0.14838356  0.96053531    -0.60270
H1223       H  0.47590876  0.16691430  0.95396028     0.43760
H1224       H  0.66001890  0.13863218  0.93453724     0.43710
C1225       C  0.57093228  0.40268864  0.95523963    -0.05350
C1226       C  0.51742416  0.36725870  0.95149937    -0.32780
C1227       C  0.48777848  0.38685527  0.94585037     0.36470
C1228       C  0.51190668  0.44260210  0.94351088    -0.05710
C1229       C  0.56659682  0.47755635  0.94629071    -0.32680
C1230       C  0.59618529  0.45800916  0.95213275     0.36380
H1231       H  0.49693454  0.32461166  0.95379611     0.16750
O1232       O  0.43401165  0.35173715  0.94358952    -0.60180
H1233       H  0.58562665  0.52052451  0.94448377     0.16760
O1234       O  0.64920517  0.49347360  0.95503139    -0.60270
H1235       H  0.64846162  0.51201136  0.96273935     0.43760
H1236       H  0.41516604  0.35254142  0.95123078     0.43710
C1237       C  0.80406481  0.57820790  0.20559549    -0.05350
C1238       C  0.75335559  0.56528133  0.20101319    -0.32780
C1239       C  0.71926126  0.51578475  0.19504829     0.36470
C1240       C  0.73502666  0.47737671  0.19376971    -0.05710
C1241       C  0.78357569  0.48850235  0.19937946    -0.32680
C1242       C  0.81795803  0.53828419  0.20517965     0.36380
H1243       H  0.74144450  0.59509555  0.20140468     0.16750
O1244       O  0.67181548  0.50658050  0.19006266    -0.60180
H1245       H  0.79687151  0.45985539  0.19862064     0.16760
O1246       O  0.86742853  0.54941729  0.20922536    -0.60270
H1247       H  0.86061816  0.53169542  0.21747338     0.43760
H1248       H  0.68166104  0.52447181  0.18180366     0.43710
C1249       C  0.07235962  0.85810336  0.29384591    -0.05350
C1250       C  0.01833255  0.83929497  0.29665816    -0.32780
C1251       C  0.00418464  0.86571783  0.30531878     0.36470
C1252       C  0.04452925  0.91179012  0.31176645    -0.05710
C1253       C  0.09884111  0.93082115  0.30899023    -0.32680
C1254       C  0.11293493  0.90444486  0.30009558     0.36380
H1255       H  0.98642970  0.80322171  0.29219595     0.16750
O1256       O  0.95038328  0.84480789  0.30759227    -0.60180
H1257       H  0.13050807  0.96628547  0.31368117     0.16760
O1258       O  0.16626126  0.92552680  0.29721297    -0.60270
H1259       H  0.18189508  0.91776072  0.30452346     0.43760
H1260       H  0.93888935  0.86192349  0.30133422     0.43710
C1261       C  0.95814196  0.72258604  0.23211569    -0.05350
C1262       C  0.97914370  0.77513205  0.23692276    -0.32780
C1263       C  0.01552867  0.79469896  0.24684843     0.36470
C1264       C  0.02985627  0.76073117  0.25293643    -0.05710
C1265       C  0.00947659  0.70823939  0.24815392    -0.32680
C1266       C  0.97500333  0.68952657  0.23774730     0.36380
H1267       H  0.96747446  0.80199893  0.23302509     0.16750
O1268       O  0.03895517  0.84821116  0.25013518    -0.60180
H1269       H  0.01992707  0.68125154  0.25254126     0.16760
O1270       O  0.95900282  0.63917887  0.23311846    -0.60270
H1271       H  0.98455846  0.64556342  0.22625313     0.43760
H1272       H  0.00911343  0.85279012  0.25306642     0.43710
C1273       C  0.39497821  0.23373267  0.20291852    -0.05350
C1274       C  0.42782069  0.21666005  0.20828291    -0.32780
C1275       C  0.47685808  0.22934386  0.20258585     0.36470
C1276       C  0.49346752  0.26000040  0.19156430    -0.05710
C1277       C  0.46110045  0.27785370  0.18643476    -0.32680
C1278       C  0.41211032  0.26451035  0.19191368     0.36380
H1279       H  0.41481012  0.19249065  0.21668537     0.16750
O1280       O  0.50872590  0.21301763  0.20800402    -0.60180
H1281       H  0.47365730  0.30187109  0.17799397     0.16760
O1282       O  0.38115243  0.28204530  0.18649127    -0.60270
H1283       H  0.36234122  0.25664217  0.17951630     0.43760
H1284       H  0.49812947  0.17792575  0.20401176     0.43710
C1285       C  0.07873013  0.14010011  0.31214454    -0.05350
C1286       C  0.05524769  0.16873647  0.30765334    -0.32780
C1287       C  0.08100009  0.20840874  0.29840961     0.36470
C1288       C  0.13118503  0.22025432  0.29353717    -0.05710
C1289       C  0.15446775  0.19158064  0.29797037    -0.32680
C1290       C  0.12914040  0.15229513  0.30720715     0.36380
H1291       H  0.01665220  0.16011672  0.31123769     0.16750
O1292       O  0.05663799  0.23515228  0.29415397    -0.60180
H1293       H  0.19337103  0.20069263  0.29447636     0.16760
O1294       O  0.15471833  0.12667277  0.31142316    -0.60270
H1295       H  0.17660886  0.14858820  0.31859902     0.43760
H1296       H  0.03665132  0.21505057  0.28661033     0.43710
C1297       C  0.26918594  0.25058403  0.23265480    -0.05350
C1298       C  0.28371934  0.24294215  0.24456805    -0.32780
C1299       C  0.26848366  0.26007327  0.25521974     0.36470
C1300       C  0.23843982  0.28568646  0.25410536    -0.05710
C1301       C  0.22681785  0.29630734  0.24216096    -0.32680
C1302       C  0.24181274  0.27892557  0.23151066     0.36380
H1303       H  0.30507496  0.22166597  0.24564735     0.16750
O1304       O  0.28189393  0.25022963  0.26671628    -0.60180
H1305       H  0.20407508  0.31616244  0.24109483     0.16760
O1306       O  0.22828059  0.28864537  0.22001534    -0.60270
H1307       H  0.26087751  0.32208803  0.21701971     0.43760
H1308       H  0.31552623  0.28415613  0.26901872     0.43710
C1309       C  0.91512329  0.84899070  0.17505257    -0.05350
C1310       C  0.89646933  0.85047888  0.18700159    -0.32780
C1311       C  0.88901273  0.81172892  0.19591296     0.36470
C1312       C  0.89961325  0.77075945  0.19279843    -0.05710
C1313       C  0.91676036  0.76857579  0.18073020    -0.32680
C1314       C  0.92497396  0.80758858  0.17192099     0.36380
H1315       H  0.88960455  0.88270684  0.18954086     0.16750
O1316       O  0.87085187  0.81376094  0.20757885    -0.60180
H1317       H  0.92502137  0.73723581  0.17823974     0.16760
O1318       O  0.94475129  0.80626016  0.16039518    -0.60270
H1319       H  0.91282635  0.78855274  0.15487717     0.43760
H1320       H  0.90371957  0.83831751  0.21241075     0.43710
C1321       C  0.12231446  0.08173374  0.17568948    -0.05350
C1322       C  0.15572952  0.13826273  0.17515723    -0.32780
C1323       C  0.19509855  0.16639893  0.18417677     0.36470
C1324       C  0.20104029  0.13820184  0.19405090    -0.05710
C1325       C  0.16777576  0.08163753  0.19465289    -0.32680
C1326       C  0.12865636  0.05324055  0.18546948     0.36380
H1327       H  0.15147993  0.16067588  0.16763833     0.16750
O1328       O  0.22848746  0.22142673  0.18313131    -0.60180
H1329       H  0.17236802  0.05960465  0.20219944     0.16760
O1330       O  0.09528822  0.99822483  0.18644742    -0.60270
H1331       H  0.11386912  0.98281435  0.18182510     0.43760
H1332       H  0.21111857  0.23699634  0.18817343     0.43710
C1333       C  0.82778765  0.74356334  0.11316954    -0.05350
C1334       C  0.87967580  0.75856904  0.11724913    -0.32780
C1335       C  0.91286720  0.80834288  0.12314352     0.36470
C1336       C  0.89422939  0.84412896  0.12513263    -0.05710
C1337       C  0.84380757  0.83056808  0.12021417    -0.32680
C1338       C  0.81069556  0.78083900  0.11432382     0.36380
H1339       H  0.89355425  0.73041577  0.11636165     0.16750
O1340       O  0.96203634  0.81998105  0.12752340    -0.60180
H1341       H  0.82826509  0.85711986  0.12158086     0.16760
O1342       O  0.75960295  0.76691190  0.11090357    -0.60270
H1343       H  0.76396984  0.78524331  0.10282217     0.43760
H1344       H  0.98820524  0.84234102  0.12094407     0.43710
C1345       C  0.13403204  0.06001640  0.12718966    -0.05350
C1346       C  0.17113539  0.05125099  0.13336267    -0.32780
C1347       C  0.22079152  0.06670481  0.12798775     0.36470
C1348       C  0.23388984  0.09080635  0.11612309    -0.05710
C1349       C  0.19603040  0.09819260  0.10971137    -0.32680
C1350       C  0.14621294  0.08326202  0.11526095     0.36380
H1351       H  0.16164376  0.03256954  0.14249029     0.16750
O1352       O  0.25593777  0.05686592  0.13425737    -0.60180
H1353       H  0.20560690  0.11652175  0.10055952     0.16760
O1354       O  0.10945302  0.09020908  0.10888531    -0.60270
H1355       H  0.11552655  0.12559565  0.11173165     0.43760
H1356       H  0.27075673  0.08390243  0.14107721     0.43710
C1357       C  0.87476007  0.13752113  0.11257297    -0.05350
C1358       C  0.92953713  0.15419593  0.11208094    -0.32780
C1359       C  0.94850817  0.12373758  0.11778155     0.36470
C1360       C  0.91250283  0.07558334  0.12426404    -0.05710
C1361       C  0.85707196  0.05646544  0.12373612    -0.32680
C1362       C  0.83813120  0.08696233  0.11799046     0.36380
H1363       H  0.95839335  0.19280345  0.10794571     0.16750
O1364       O  0.00287576  0.14362390  0.11764400    -0.60180
H1365       H  0.82831181  0.01899461  0.12831793     0.16760
O1366       O  0.78376033  0.06737111  0.11779849    -0.60270
H1367       H  0.77309126  0.06694546  0.12659683     0.43760
H1368       H  0.00882772  0.12577739  0.11045179     0.43710
C1369       C  0.71410589  0.23887822  0.19180218    -0.05350
C1370       C  0.71377742  0.19803911  0.18478424    -0.32780
C1371       C  0.72805109  0.16337037  0.19008798     0.36470
C1372       C  0.74407870  0.16966817  0.20268371    -0.05710
C1373       C  0.74231782  0.20940610  0.20991274    -0.32680
C1374       C  0.72711883  0.24389344  0.20451754     0.36380
H1375       H  0.70178729  0.19256246  0.17509395     0.16750
O1376       O  0.72451724  0.12207391  0.18298722    -0.60180
H1377       H  0.75388272  0.21448311  0.21961476     0.16760
O1378       O  0.72456477  0.28169179  0.21171786    -0.60270
H1379       H  0.75999791  0.31549378  0.21061877     0.43760
H1380       H  0.75241267  0.13978664  0.17640902     0.43710
C1381       C  0.84596929  0.08240433  0.19336668    -0.05350
C1382       C  0.90208823  0.10617334  0.19393095    -0.32780
C1383       C  0.92921755  0.09476506  0.18473002     0.36470
C1384       C  0.89972274  0.05870562  0.17504640    -0.05710
C1385       C  0.84375654  0.03545189  0.17451005    -0.32680
C1386       C  0.81695838  0.04762320  0.18349532     0.36380
H1387       H  0.92461202  0.13317555  0.20151935     0.16750
O1388       O  0.98373057  0.11639621  0.18566385    -0.60180
H1389       H  0.82072043  0.00759740  0.16708145     0.16760
O1390       O  0.76214454  0.02441322  0.18274597    -0.60270
H1391       H  0.75665507  0.04746799  0.17686370     0.43760
H1392       H  0.00027202  0.15051277  0.18082375     0.43710
C1393       C  0.76328766  0.91685880  0.29424204    -0.05350
C1394       C  0.80107267  0.97071388  0.29726882    -0.32780
C1395       C  0.84267763  0.98365650  0.30560097     0.36470
C1396       C  0.84728447  0.94222584  0.31137717    -0.05710
C1397       C  0.80952035  0.88810229  0.30835406    -0.32680
C1398       C  0.76808694  0.87528151  0.29979201     0.36380
H1399       H  0.79799377  0.00340440  0.29329994     0.16750
O1400       O  0.87843206  0.03736954  0.30802183    -0.60180
H1401       H  0.81210619  0.85560824  0.31260821     0.16760
O1402       O  0.73290726  0.82204492  0.29685034    -0.60270
H1403       H  0.74760203  0.81553514  0.28914500     0.43760
H1404       H  0.86175068  0.04693827  0.31484161     0.43710
C1405       C  0.70715932  0.96414440  0.25448396    -0.05350
C1406       C  0.75862805  0.98379572  0.24929939    -0.32780
C1407       C  0.77785934  0.02047916  0.23945542     0.36470
C1408       C  0.74389778  0.03485126  0.23342200    -0.05710
C1409       C  0.69197512  0.01494775  0.23841106    -0.32680
C1410       C  0.67408428  0.98116814  0.24899328     0.36380
H1411       H  0.78523165  0.97142132  0.25296246     0.16750
O1412       O  0.83074867  0.04271131  0.23598474    -0.60180
H1413       H  0.66491725  0.02538780  0.23411910     0.16760
O1414       O  0.62464056  0.96607609  0.25393409    -0.60270
H1415       H  0.63203364  0.99278426  0.26060761     0.43760
H1416       H  0.85038007  0.07824299  0.24026263     0.43710
C1417       C  0.46692152  0.75224858  0.29492451    -0.05350
C1418       C  0.50244690  0.73322582  0.29361008    -0.32780
C1419       C  0.55273110  0.76489765  0.28777337     0.36470
C1420       C  0.56820834  0.81644766  0.28301571    -0.05710
C1421       C  0.53106720  0.83355327  0.28340616    -0.32680
C1422       C  0.48106526  0.80227773  0.28932498     0.36380
H1423       H  0.49234112  0.69465166  0.29757722     0.16750
O1424       O  0.58676515  0.74537302  0.28680207    -0.60180
H1425       H  0.54216332  0.87301353  0.27981227     0.16760
O1426       O  0.44745696  0.82235280  0.28999616    -0.60270
H1427       H  0.46013310  0.84707493  0.29727068     0.43760
H1428       H  0.59829692  0.74437247  0.29542093     0.43710
C1429       C  0.23234888  0.72918255  0.29430794    -0.05350
C1430       C  0.25214054  0.78479486  0.29307138    -0.32780
C1431       C  0.22212345  0.80318384  0.28693780     0.36470
C1432       C  0.17103806  0.76591128  0.28194037    -0.05710
C1433       C  0.15318484  0.71065671  0.28225651    -0.32680
C1434       C  0.18306730  0.69208912  0.28839646     0.36380
H1435       H  0.28996652  0.81424355  0.29734355     0.16750
O1436       O  0.24191336  0.85774568  0.28642899    -0.60180
H1437       H  0.11412126  0.68136074  0.27847152     0.16760
O1438       O  0.16228568  0.63734227  0.28899306    -0.60270
H1439       H  0.13657352  0.62447380  0.29607835     0.43760
H1440       H  0.25883287  0.86923215  0.27809242     0.43710
C1441       C  0.25082197  0.51517267  0.29417928    -0.05350
C1442       C  0.19591604  0.47516170  0.29337144    -0.32780
C1443       C  0.17913181  0.42546196  0.28746171     0.36470
C1444       C  0.21749171  0.41493949  0.28220933    -0.05710
C1445       C  0.27177378  0.45664243  0.28206145    -0.32680
C1446       C  0.28855123  0.50631482  0.28786817     0.36380
H1447       H  0.16593436  0.48124716  0.29782476     0.16750
O1448       O  0.12513645  0.38718051  0.28689884    -0.60180
H1449       H  0.30198939  0.44968056  0.27807810     0.16760
O1450       O  0.34258217  0.54445100  0.28795869    -0.60270
H1451       H  0.34832271  0.56840445  0.28078851     0.43760
H1452       H  0.11350448  0.37589695  0.29562208     0.43710
C1453       C  0.12698420  0.88874883  0.37510464    -0.05350
C1454       C  0.07707907  0.85103224  0.36975901    -0.32780
C1455       C  0.04563945  0.86785584  0.36364269     0.36470
C1456       C  0.06343946  0.92340466  0.36292206    -0.05710
C1457       C  0.11151769  0.96063896  0.36904860    -0.32680
C1458       C  0.14322259  0.94390700  0.37501346     0.36380
H1459       H  0.06344338  0.80832580  0.36985442     0.16750
O1460       O  0.99857987  0.82969145  0.35807403    -0.60180
H1461       H  0.12652273  0.00361161  0.36864582     0.16760
O1462       O  0.19246331  0.98245417  0.37963543    -0.60270
H1463       H  0.18448826  0.99492116  0.38751029     0.43760
H1464       H  0.00944698  0.82302961  0.34981885     0.43710
C1465       C  0.22452950  0.79288779  0.36502953    -0.05350
C1466       C  0.27880833  0.81114876  0.36264608    -0.32780
C1467       C  0.29378625  0.78661036  0.35364428     0.36470
C1468       C  0.25412038  0.74260396  0.34653537    -0.05710
C1469       C  0.19955161  0.72331699  0.34908954    -0.32680
C1470       C  0.18462687  0.74779831  0.35829313     0.36380
H1471       H  0.31035725  0.84591574  0.36755841     0.16750
O1472       O  0.34775378  0.80648687  0.35192352    -0.60180
H1473       H  0.16831874  0.68940998  0.34389811     0.16760
O1474       O  0.13095575  0.72723365  0.36061045    -0.60270
H1475       H  0.12209841  0.70245837  0.36778076     0.43760
H1476       H  0.36026685  0.83745135  0.34613487     0.43710
C1477       C  0.56609218  0.18236437  0.46270629    -0.05350
C1478       C  0.51645162  0.17069803  0.45764786    -0.32780
C1479       C  0.48182714  0.12110816  0.45182917     0.36470
C1480       C  0.49662823  0.08199066  0.45081162    -0.05710
C1481       C  0.54806803  0.09532059  0.45493061    -0.32680
C1482       C  0.58241472  0.14461688  0.46093005     0.36380
H1483       H  0.50261303  0.19874779  0.45884627     0.16750
O1484       O  0.43147287  0.10931504  0.44834286    -0.60180
H1485       H  0.56055454  0.06604977  0.45409153     0.16760
O1486       O  0.63083413  0.15437732  0.46540553    -0.60270
H1487       H  0.62240614  0.13600931  0.47360346     0.43760
H1488       H  0.43691790  0.12871754  0.44036992     0.43710
C1489       C  0.27075795  0.90257323  0.40394746    -0.05350
C1490       C  0.32669301  0.93378717  0.40190394    -0.32780
C1491       C  0.36291181  0.95373667  0.41189616     0.36470
C1492       C  0.34354464  0.94151277  0.42420779    -0.05710
C1493       C  0.28750515  0.91131518  0.42625965    -0.32680
C1494       C  0.25122897  0.89249733  0.41625095     0.36380
H1495       H  0.34239250  0.94186212  0.39248447     0.16750
O1496       O  0.41723832  0.98200525  0.40951838    -0.60180
H1497       H  0.27185377  0.90159085  0.43567087     0.16760
O1498       O  0.19696976  0.86145667  0.41857528    -0.60270
H1499       H  0.18526193  0.88768666  0.42005930     0.43760
H1500       H  0.42637993  0.01934876  0.40757045     0.43710
C1501       C  0.90973856  0.42564113  0.45380911    -0.05350
C1502       C  0.90072516  0.41450304  0.46658334    -0.32780
C1503       C  0.85247540  0.40264903  0.47213528     0.36470
C1504       C  0.81087957  0.39984775  0.46492586    -0.05710
C1505       C  0.81846248  0.40910832  0.45206950    -0.32680
C1506       C  0.86783437  0.42228915  0.44647744     0.36380
H1507       H  0.93160765  0.41539343  0.47238459     0.16750
O1508       O  0.84593351  0.39252735  0.48466150    -0.60180
H1509       H  0.78632560  0.40625759  0.44640422     0.16760
O1510       O  0.87549709  0.43398208  0.43401732    -0.60270
H1511       H  0.85563139  0.39843708  0.42975147     0.43760
H1512       H  0.86083335  0.42850624  0.48863321     0.43710
C1513       C  0.08838971  0.24719914  0.37454278    -0.05350
C1514       C  0.04221754  0.22401680  0.36716042    -0.32780
C1515       C  0.02531674  0.17574636  0.36080724     0.36470
C1516       C  0.05428257  0.14893112  0.36189557    -0.05710
C1517       C  0.10042534  0.17184921  0.36942139    -0.32680
C1518       C  0.11736551  0.22068654  0.37580291     0.36380
H1519       H  0.02045027  0.24479844  0.36587667     0.16750
O1520       O  0.98175808  0.15655803  0.35303499    -0.60180
H1521       H  0.12333761  0.15209761  0.37029577     0.16760
O1522       O  0.16297175  0.24295760  0.38294567    -0.60270
H1523       H  0.14996125  0.23050681  0.39154107     0.43760
H1524       H  0.99709386  0.17205308  0.34474701     0.43710
C1525       C  0.23460278  0.52317654  0.34638451    -0.05350
C1526       C  0.25676465  0.49159020  0.34956775    -0.32780
C1527       C  0.23337228  0.45210626  0.35894894     0.36470
C1528       C  0.18674792  0.44327693  0.36526548    -0.05710
C1529       C  0.16538399  0.47551176  0.36222657    -0.32680
C1530       C  0.18859911  0.51490502  0.35297915     0.36380
H1531       H  0.29224258  0.49736204  0.34476533     0.16750
O1532       O  0.25642199  0.42245045  0.36184929    -0.60180
H1533       H  0.12919113  0.46911491  0.36679340     0.16760
O1534       O  0.16530746  0.54472079  0.35045651    -0.60270
H1535       H  0.13691325  0.52322301  0.34423362     0.43760
H1536       H  0.28024977  0.44140515  0.36902950     0.43710
C1537       C  0.07132701  0.37481170  0.40322710    -0.05350
C1538       C  0.07351470  0.35749642  0.41527675    -0.32780
C1539       C  0.05549504  0.37401092  0.42553630     0.36470
C1540       C  0.03385267  0.40731837  0.42380043    -0.05710
C1541       C  0.02819019  0.42149755  0.41170504    -0.32680
C1542       C  0.04667686  0.40551734  0.40146308     0.36380
H1543       H  0.09171907  0.33343961  0.41680859     0.16750
O1544       O  0.05999291  0.35824129  0.43727048    -0.60180
H1545       H  0.01169560  0.44714472  0.41024788     0.16760
O1546       O  0.04204969  0.42164591  0.38978424    -0.60270
H1547       H  0.00889448  0.39043417  0.38626917     0.43760
H1548       H  0.09782960  0.38377581  0.43976935     0.43710
C1549       C  0.55671713  0.48105928  0.45009664    -0.05350
C1550       C  0.51822328  0.43059764  0.45514280    -0.32780
C1551       C  0.53384876  0.39811753  0.46123228     0.36470
C1552       C  0.58897846  0.41548654  0.46221754    -0.05710
C1553       C  0.62703662  0.46397833  0.45629149    -0.32680
C1554       C  0.61143394  0.49670360  0.45034241     0.36380
H1555       H  0.47585254  0.41748483  0.45490796     0.16750
O1556       O  0.49491625  0.35053983  0.46655676    -0.60180
H1557       H  0.66967052  0.47853554  0.45688820     0.16760
O1558       O  0.65055347  0.54635839  0.44593665    -0.60270
H1559       H  0.66263229  0.53884403  0.43794708     0.43760
H1560       H  0.48713862  0.36093875  0.47474779     0.43710
C1561       C  0.73148132  0.84793257  0.37326900    -0.05350
C1562       C  0.76626187  0.82810543  0.37221594    -0.32780
C1563       C  0.81655532  0.85863157  0.36644039     0.36470
C1564       C  0.83348304  0.91066808  0.36159886    -0.05710
C1565       C  0.79974457  0.93163554  0.36326272    -0.32680
C1566       C  0.74935637  0.90089534  0.36908648     0.36380
H1567       H  0.75333791  0.78748448  0.37530630     0.16750
O1568       O  0.84774272  0.83596949  0.36518407    -0.60180
H1569       H  0.81170874  0.97140336  0.35972998     0.16760
O1570       O  0.71729940  0.92253371  0.37036160    -0.60270
H1571       H  0.72390260  0.93734572  0.37893312     0.43760
H1572       H  0.83475410  0.81379421  0.35750026     0.43710
C1573       C  0.53331831  0.75590580  0.36531626    -0.05350
C1574       C  0.49281698  0.70163850  0.36350131    -0.32780
C1575       C  0.45247562  0.68688431  0.35469138     0.36470
C1576       C  0.45205438  0.72661072  0.34710496    -0.05710
C1577       C  0.49098670  0.78130004  0.34926290    -0.32680
C1578       C  0.53133210  0.79614943  0.35829869     0.36380
H1579       H  0.49318584  0.66964449  0.36862893     0.16750
O1580       O  0.41370877  0.63304577  0.35360790    -0.60180
H1581       H  0.49084676  0.81264795  0.34379793     0.16760
O1582       O  0.56761915  0.84999644  0.36043683    -0.60270
H1583       H  0.58967632  0.86370920  0.35274751     0.43760
H1584       H  0.43012968  0.61717642  0.34832667     0.43710
C1585       C  0.59907865  0.70046139  0.40187623    -0.05350
C1586       C  0.62435937  0.71902348  0.41346347    -0.32780
C1587       C  0.61015643  0.68342585  0.42355537     0.36470
C1588       C  0.57097672  0.62818688  0.42210541    -0.05710
C1589       C  0.54788209  0.60892084  0.41040359    -0.32680
C1590       C  0.56142413  0.64453896  0.40033393     0.36380
H1591       H  0.65368994  0.76159082  0.41483300     0.16750
O1592       O  0.63432668  0.70297729  0.43486556    -0.60180
H1593       H  0.51770914  0.56648016  0.40918756     0.16760
O1594       O  0.53842096  0.62421204  0.38895071    -0.60270
H1595       H  0.50005724  0.61327035  0.38985865     0.43760
H1596       H  0.61375593  0.71771308  0.43884986     0.43710
C1597       C  0.19017412  0.58222067  0.47876289    -0.05350
C1598       C  0.15495892  0.60049141  0.47607816    -0.32780
C1599       C  0.11415413  0.57412124  0.46713564     0.36470
C1600       C  0.10784162  0.52836864  0.46075094    -0.05710
C1601       C  0.14430696  0.51151054  0.46315632    -0.32680
C1602       C  0.18534848  0.53813412  0.47185910     0.36380
H1603       H  0.15855614  0.63493645  0.48100790     0.16750
O1604       O  0.08170881  0.59426913  0.46444574    -0.60180
H1605       H  0.14013134  0.47617700  0.45854445     0.16760
O1606       O  0.21924397  0.51905827  0.47379551    -0.60270
H1607       H  0.24962908  0.53956152  0.46791255     0.43760
H1608       H  0.06029102  0.58896454  0.47209849     0.43710
C1609       C  0.38888003  0.81099746  0.48027191    -0.05350
C1610       C  0.38103464  0.85321896  0.48363545    -0.32780
C1611       C  0.38809623  0.89213719  0.47492918     0.36470
C1612       C  0.40215916  0.88847374  0.46257629    -0.05710
C1613       C  0.41009793  0.84614854  0.45918501    -0.32680
C1614       C  0.40384809  0.80758707  0.46800929     0.36380
H1615       H  0.36813115  0.85524490  0.49299640     0.16750
O1616       O  0.37847578  0.93208791  0.47838761    -0.60180
H1617       H  0.42109633  0.84309177  0.44970813     0.16760
O1618       O  0.40979231  0.76540812  0.46443800    -0.60270
H1619       H  0.44700910  0.77634540  0.46686815     0.43760
H1620       H  0.41124487  0.95911097  0.48292357     0.43710
C1621       C  0.41259242  0.60779976  0.47953905    -0.05350
C1622       C  0.46428456  0.64728262  0.47534025    -0.32780
C1623       C  0.49148305  0.63502110  0.46647129     0.36470
C1624       C  0.46724487  0.58244931  0.46155280    -0.05710
C1625       C  0.41583394  0.54250442  0.46577069    -0.32680
C1626       C  0.38842629  0.55484077  0.47471668     0.36380
H1627       H  0.48438850  0.68800973  0.47907231     0.16750
O1628       O  0.54296313  0.67403583  0.46310839    -0.60180
H1629       H  0.39678379  0.50183626  0.46203624     0.16760
O1630       O  0.33765384  0.51539231  0.47836942    -0.60270
H1631       H  0.34322143  0.49596334  0.48523194     0.43760
H1632       H  0.53891028  0.69899332  0.45754295     0.43710
C1633       C  0.41435737  0.81710041  0.53028470    -0.05350
C1634       C  0.47021441  0.84004340  0.53180850    -0.32780
C1635       C  0.50143551  0.88954841  0.53785350     0.36470
C1636       C  0.47701792  0.91689098  0.54263313    -0.05710
C1637       C  0.42097729  0.89314332  0.54168253    -0.32680
C1638       C  0.38954784  0.84342248  0.53555863     0.36380
H1639       H  0.49047828  0.82109602  0.52768588     0.16750
O1640       O  0.55640510  0.91321968  0.53805608    -0.60180
H1641       H  0.40192664  0.91418482  0.54529613     0.16760
O1642       O  0.33488835  0.82106772  0.53475668    -0.60270
H1643       H  0.32956687  0.83947564  0.52762516     0.43760
H1644       H  0.56417747  0.90040648  0.54586581     0.43710
C1645       C  0.17904345  0.59590466  0.53053549    -0.05350
C1646       C  0.13854262  0.54083744  0.53053083    -0.32780
C1647       C  0.08797325  0.52325504  0.53595770     0.36470
C1648       C  0.07717116  0.56106676  0.54146380    -0.05710
C1649       C  0.11927683  0.61522782  0.54241066    -0.32680
C1650       C  0.16980585  0.63262229  0.53719626     0.36380
H1651       H  0.14501761  0.51156060  0.52579530     0.16750
O1652       O  0.04939707  0.46910496  0.53587443    -0.60180
H1653       H  0.11235052  0.64518077  0.54661466     0.16760
O1654       O  0.20861360  0.68651021  0.53801668    -0.60270
H1655       H  0.23095971  0.68934953  0.54526434     0.43760
H1656       H  0.04014894  0.45930822  0.52699888     0.43710
C1657       C  0.39710258  0.58455976  0.52937760    -0.05350
C1658       C  0.38002399  0.53150759  0.52578067    -0.32780
C1659       C  0.40003884  0.50274155  0.53164961     0.36470
C1660       C  0.43663247  0.52638936  0.54154241    -0.05710
C1661       C  0.45237494  0.57887897  0.54551985    -0.32680
C1662       C  0.43318780  0.60838432  0.53935224     0.36380
H1663       H  0.35243726  0.51294474  0.51805565     0.16750
O1664       O  0.38407454  0.45151776  0.52758692    -0.60180
H1665       H  0.48074343  0.59744913  0.55309058     0.16760
O1666       O  0.44897071  0.65970236  0.54324688    -0.60270
H1667       H  0.48152239  0.68397271  0.53825186     0.43760
H1668       H  0.40620739  0.45670491  0.52007329     0.43710
loop_ 
_geom_bond_atom_site_label_1 
_geom_bond_atom_site_label_2 
_geom_bond_distance 
_geom_bond_site_symmetry_2 
_ccdc_geom_bond_type 
O1           C16   1.270       .  A
O1           Al9   1.947       .  S
C2           O12   1.268       .  A
C2            O3   1.257       .  A
C2         C1621   1.481       .  S
O3           Al5   1.868       .  S
O4            C6   1.266       .  A
O4           Al5   1.943       .  S
Al5          O13   1.938       .  S
Al5          O15   1.869       .  S
Al5          O14   1.773       .  S
C6           O19   1.254       .  A
C6         C1609   1.463       .  S
O7           C17   1.271       .  A
O7           Al9   1.955       .  S
O8           C21   1.269       .  A
O8          Al18   1.948       .  S
Al9          O22   1.872       .  S
Al9          O19   1.869       .  S
Al9          O14   1.773       .  S
O10          C17   1.255       .  A
O10         Al18   1.860       .  S
O11          C20   1.258       .  A
O11         Al18   1.876       .  S
O12         Al18   1.946       .  S
O13          C20   1.267       .  A
O14         Al18   1.775       .  S
O15          C16   1.257       .  A
C16        C1633   1.480       .  S
C17        C1597   1.487       .  S
C20        C1657   1.465       .  S
C21          O22   1.256       .  A
C21        C1645   1.487       .  S
C23        C1561   1.487       .  S
C23          C24   1.409       .  A
C23          C28   1.406       .  A
C24          C25   1.406       .  A
C24          H29   1.083       .  S
C25        C1585   1.491       .  S
C25          C26   1.404       .  A
C26          C27   1.407       .  A
C26          H30   1.083       .  S
C27        C1573   1.494       .  S
C27          C28   1.404       .  A
C28          H31   1.082       .  S
C32        C1549   1.489       .  S
C32          C33   1.407       .  A
C32          C37   1.412       .  A
C33          C34   1.399       .  A
C33          H38   1.084       .  S
C34        C1624   1.478       .  S
C34          C35   1.400       .  A
C35          C36   1.399       .  A
C35          H39   1.084       .  S
C36        C1588   1.478       .  S
C36          C37   1.406       .  A
C37          H40   1.083       .  S
C41        C1537   1.488       .  S
C41          C42   1.405       .  A
C41          C46   1.407       .  A
C42          C43   1.405       .  A
C42          H47   1.084       .  S
C43        C1528   1.489       .  S
C43          C44   1.402       .  A
C44          C45   1.403       .  A
C44          H48   1.084       .  S
C45        C1513   1.476       .  S
C45          C46   1.407       .  A
C46          H49   1.084       .  S
C50        C1540   1.481       .  S
C50          C51   1.407   1_455  A
C50          C55   1.403       .  A
C51          C52   1.409       .  A
C51          H56   1.083       .  S
C52        C1501   1.489       .  S
C52          C53   1.407   1_655  A
C53          C54   1.400       .  A
C53          H57   1.082       .  S
C54        C1600   1.491       .  S
C54          C55   1.404       .  A
C55          H58   1.084       .  S
C59        C1492   1.489       .  S
C59          C60   1.407       .  A
C59          C64   1.412   1_565  A
C60          C61   1.402       .  A
C60          H65   1.084       .  S
C61        C1612   1.476       .  S
C61          C62   1.397       .  A
C62          C63   1.402   1_565  A
C62          H66   1.084       .  S
C63        C1480   1.490       .  S
C63          C64   1.411       .  A
C64          H67   1.083       .  S
C68        C1453   1.493       .  S
C68          C69   1.407       .  A
C68          C73   1.412       .  A
C69          C70   1.403       .  A
C69          H74   1.083       .  S
C70        C1465   1.492       .  S
C70          C71   1.406       .  A
C71          C72   1.403       .  A
C71          H75   1.084       .  S
C72        C1489   1.487       .  S
C72          C73   1.407       .  A
C73          H76   1.083       .  S
O77          C92   1.270       .  A
O77         Al85   1.949       .  S
C78          O88   1.271       .  A
C78          O79   1.254       .  A
C78        C1468   1.491       .  S
O79         Al81   1.860       .  S
O80          C82   1.271       .  A
O80         Al81   1.960       .  S
Al81         O89   1.951       .  S
Al81         O91   1.879       .  S
Al81         O90   1.773       .  S
C82          O95   1.255       .  A
C82        C1576   1.490       .  S
O83          C93   1.269       .  A
O83         Al85   1.953       .  S
O84          C97   1.273       .  A
O84         Al94   1.959       .  S
Al85         O98   1.875       .  S
Al85         O95   1.861       .  S
Al85         O90   1.772       .  S
O86          C93   1.255       .  A
O86         Al94   1.868       .  S
O87          C96   1.258       .  A
O87         Al94   1.880       .  S
O88         Al94   1.962       .  S
O89          C96   1.271       .  A
O90         Al94   1.774       .  S
O91          C92   1.258       .  A
C92        C1417   1.491       .  S
C93        C1525   1.489       .  S
C96        C1429   1.493       .  S
C97          O98   1.258       .  A
C97        C1441   1.493       .  S
C99        C1420   1.488       .  S
C99         C100   1.413       .  A
C99         C104   1.404       .  A
C100        C101   1.414       .  A
C100        H105   1.081       .  S
C101       C1405   1.508       .  S
C101        C102   1.411       .  A
C102        C103   1.403       .  A
C102        H106   1.081       .  S
C103       C1393   1.490       .  S
C103        C104   1.397       .  A
C104        H107   1.083       .  S
C108       C1408   1.503       .  S
C108        C109   1.411       .  A
C108        C113   1.420       .  A
C109        C110   1.394       .  A
C109        H114   1.083       .  S
C110       C1381   1.468       .  S
C110        C111   1.388       .  A
C111        C112   1.401       .  A
C111        H115   1.084       .  S
C112       C1372   1.488       .  S
C112        C113   1.415       .  A
C113        H116   1.082       .  S
O117        C132   1.255   1_565  A
O117       Al125   1.876       .  S
C118        O128   1.257   1_545  A
C118        O119   1.268       .  A
C118       C1384   1.464       .  S
O119       Al121   1.940   1_655  S
O120        C122   1.257       .  A
O120       Al121   1.871       .  S
Al121       O129   1.889   1_455  S
Al121       O131   1.937       .  S
Al121       O130   1.780   1_445  S
C122        O135   1.268       .  A
C122       C1321   1.473       .  S
O123        C133   1.253       .  A
O123       Al125   1.869   1_655  S
O124        C137   1.259       .  A
O124       Al134   1.877       .  S
Al125       O138   1.945   1_455  S
Al125       O135   1.945   1_565  S
Al125       O130   1.775   1_455  S
O126        C133   1.267       .  A
O126       Al134   1.949       .  S
O127        C136   1.268       .  A
O127       Al134   1.941   1_545  S
O128       Al134   1.867       .  S
O129        C136   1.259       .  A
O130       Al134   1.778       .  S
O131        C132   1.265       .  A
C132       C1345   1.464       .  S
C133       C1309   1.467       .  S
C136       C1360   1.492       .  S
C137        O138   1.270       .  A
C137       C1336   1.487       .  S
C139       C1300   1.492       .  S
C139        C140   1.406       .  A
C139        C144   1.412       .  A
C140        C141   1.404       .  A
C140        H145   1.084       .  S
C141       C1288   1.484       .  S
C141        C142   1.399       .  A
C142        C143   1.405       .  A
C142        H146   1.083       .  S
C143       C1444   1.493       .  S
C143        C144   1.414       .  A
C144        H147   1.083       .  S
C148       C1297   1.492       .  S
C148        C149   1.409       .  A
C148        C153   1.413       .  A
C149        C150   1.402       .  A
C149        H154   1.084       .  S
C150       C1324   1.474       .  S
C150        C151   1.395       .  A
C151        C152   1.401       .  A
C151        H155   1.085       .  S
C152       C1273   1.481       .  S
C152        C153   1.410       .  A
C153        H156   1.083       .  S
C157       C1432   1.489       .  S
C157        C158   1.415       .  A
C157        C162   1.404       .  A
C158        C159   1.415       .  A
C158        H163   1.083       .  S
C159       C1264   1.504       .  S
C159        C160   1.408       .  A
C160        C161   1.403       .  A
C160        H164   1.081       .  S
C161       C1249   1.489       .  S
C161        C162   1.397       .  A
C162        H165   1.083       .  S
C166       C1261   1.511       .  S
C166        C167   1.419       .  A
C166        C171   1.414       .  A
C167        C168   1.415       .  A
C167        H172   1.081       .  S
C168       C1237   1.492       .  S
C168        C169   1.402       .  A
C169        C170   1.393       .  A
C169        H173   1.084       .  S
C170       C1312   1.477       .  S
C170        C171   1.399       .  A
C171        H174   1.082       .  S
O175        C190   1.256   1_655  A
O175       Al183   1.869       .  S
C176        O186   1.255   1_455  A
C176        O177   1.273       .  A
C176       C1252   1.488       .  S
O177       Al179   1.965   1_565  S
O178        C180   1.256       .  A
O178       Al179   1.869       .  S
Al179       O187   1.882   1_545  S
Al179       O189   1.964       .  S
Al179       O188   1.773   1_445  S
C180        O193   1.271       .  A
C180       C1285   1.487       .  S
O181        C191   1.254   1_545  A
O181       Al183   1.860       .  S
O182        C195   1.257       .  A
O182       Al192   1.872       .  S
Al183       O196   1.958   1_545  S
Al183       O193   1.956   1_655  S
Al183       O188   1.766   1_545  S
O184        C191   1.271       .  A
O184       Al192   1.965       .  S
O185        C194   1.271   1_655  A
O185       Al192   1.952       .  S
O186       Al192   1.859       .  S
O187        C194   1.260       .  A
O188       Al192   1.769       .  S
O189        C190   1.272       .  A
C190       C1516   1.481       .  S
C191       C1396   1.489       .  S
C194       C1456   1.491       .  S
C195        O196   1.272       .  A
C195       C1564   1.489       .  S
O197        C212   1.270       .  A
O197       Al205   1.951       .  S
C198        O208   1.270       .  A
C198        O199   1.256       .  A
C198       C1165   1.479   1_556  S
O199       Al201   1.860       .  S
O200        C202   1.265       .  A
O200       Al201   1.937       .  S
Al201       O209   1.928       .  S
Al201       O211   1.871       .  S
Al201       O210   1.768       .  S
C202        O215   1.255       .  A
C202       C1189   1.456   1_556  S
O203        C213   1.269       .  A
O203       Al205   1.943       .  S
O204        C217   1.270       .  A
O204       Al214   1.949       .  S
Al205       O218   1.870       .  S
Al205       O215   1.873       .  S
Al205       O210   1.768       .  S
O206        C213   1.257       .  A
O206       Al214   1.872       .  S
O207        C216   1.259       .  A
O207       Al214   1.881       .  S
O208       Al214   1.953       .  S
O209        C216   1.266       .  A
O210       Al214   1.771       .  S
O211        C212   1.257       .  A
C212       C1201   1.485       .  S
C213       C1177   1.486   1_556  S
C216       C1225   1.479       .  S
C217        O218   1.258       .  A
C217       C1213   1.486       .  S
C219       C1141   1.483       .  S
C219        C220   1.404       .  A
C219        C224   1.412       .  A
C220        C221   1.394       .  A
C220        H225   1.084       .  S
C221       C1168   1.477       .  S
C221        C222   1.398       .  A
C222        C223   1.405       .  A
C222        H226   1.082       .  S
C223       C1153   1.497       .  S
C223        C224   1.412       .  A
C224        H227   1.083       .  S
C228       C1156   1.501       .  S
C228        C229   1.411       .  A
C228        C233   1.408       .  A
C229        C230   1.410       .  A
C229        H234   1.082       .  S
C230       C1333   1.484       .  S
C230        C231   1.403       .  A
C231        C232   1.398       .  A
C231        H235   1.083       .  S
C232       C1129   1.490       .  S
C232        C233   1.404       .  A
C233        H236   1.081       .  S
C237       C1120   1.480       .  S
C237        C238   1.403       .  A
C237        C242   1.406   1_545  A
C238        C239   1.404       .  A
C238        H243   1.084       .  S
C239       C1180   1.485       .  S
C239        C240   1.401       .  A
C240        C241   1.402   1_545  A
C240        H244   1.084       .  S
C241       C1105   1.475       .  S
C241        C242   1.405       .  A
C242        H245   1.084       .  S
C246       C1117   1.484       .  S
C246        C247   1.407       .  A
C246        C251   1.406       .  A
C247        C248   1.406       .  A
C247        H252   1.084       .  S
C248       C1348   1.479       .  S
C248        C249   1.403       .  A
C249        C250   1.400       .  A
C249        H253   1.083       .  S
C250       C1096   1.488       .  S
C250        C251   1.405       .  A
C251        H254   1.084       .  S
C255       C1072   1.494       .  S
C255        C256   1.399   1_455  A
C255        C260   1.417   1_455  A
C256        C257   1.389       .  A
C256        H261   1.084       .  S
C257       C1192   1.476       .  S
C257        C258   1.396       .  A
C258        C259   1.414       .  A
C258        H262   1.082       .  S
C259       C1084   1.511       .  S
C259        C260   1.424       .  A
C260        H263   1.080   1_655  S
C264       C1081   1.506       .  S
C264        C265   1.414       .  A
C264        C269   1.410       .  A
C265        C266   1.414       .  A
C265        H270   1.083       .  S
C266       C1357   1.491       .  S
C266        C267   1.406       .  A
C267        C268   1.397       .  A
C267        H271   1.083       .  S
C268       C1060   1.486       .  S
C268        C269   1.402       .  A
C269        H272   1.081       .  S
O273        C288   1.271       .  A
O273       Al281   1.953       .  S
C274        O284   1.272       .  A
C274        O275   1.258       .  A
C274       C1057   1.488       .  S
O275       Al277   1.871       .  S
O276        C278   1.271       .  A
O276       Al277   1.963       .  S
Al277       O285   1.949       .  S
Al277       O287   1.879       .  S
Al277       O286   1.773       .  S
C278        O291   1.251       .  A
C278       C1132   1.487       .  S
O279        C289   1.272       .  A
O279       Al281   1.958       .  S
O280        C293   1.270       .  A
O280       Al290   1.960       .  S
Al281       O294   1.873       .  S
Al281       O291   1.848       .  S
Al281       O286   1.767       .  S
O282        C289   1.257       .  A
O282       Al290   1.868       .  S
O283        C292   1.259       .  A
O283       Al290   1.885       .  S
O284       Al290   1.964       .  S
O285        C292   1.270       .  A
O286       Al290   1.773       .  S
O287        C288   1.259       .  A
C288       C1240   1.492       .  S
C289       C1093   1.489       .  S
C292       C1369   1.466       .  S
C293        O294   1.255       .  A
C293       C1276   1.473       .  S
O295        C310   1.256       .  A
O295       Al303   1.873   1_554  S
C296        O306   1.258       .  A
C296        O297   1.268       .  A
C296       C1033   1.463       .  S
O297       Al299   1.944   1_556  S
O298        C300   1.257       .  A
O298       Al299   1.870   1_556  S
Al299       O307   1.886       .  S
Al299       O309   1.940       .  S
Al299       O308   1.773       .  S
C300        O313   1.270       .  A
C300       C1024   1.488       .  S
O301        C311   1.253       .  A
O301       Al303   1.861       .  S
O302        C315   1.257       .  A
O302       Al312   1.883   1_554  S
Al303       O316   1.949   1_556  S
Al303       O313   1.950       .  S
Al303       O308   1.767   1_556  S
O304        C311   1.268       .  A
O304       Al312   1.953       .  S
O305        C314   1.269       .  A
O305       Al312   1.936   1_554  S
O306       Al312   1.881       .  S
O307        C314   1.261       .  A
O308       Al312   1.774   1_554  S
O309        C310   1.266       .  A
C310       C1108   1.469       .  S
C311       C1045   1.485       .  S
C314       C1144   1.484       .  S
C315        O316   1.271       .  A
C315       C1069   1.467       .  S
C317        C985   1.479       .  S
C317        C318   1.407       .  A
C317        C322   1.403       .  A
C318        C319   1.406       .  A
C318        H323   1.083       .  S
C319       C1012   1.479       .  S
C319        C320   1.403       .  A
C320        C321   1.397       .  A
C320        H324   1.084       .  S
C321       C1000   1.467       .  S
C321        C322   1.396       .  A
C322        H325   1.085       .  S
C326       C1228   1.476       .  S
C326        C327   1.402       .  A
C326        C331   1.402       .  A
C327        C328   1.403       .  A
C327        H332   1.083       .  S
C328       C1036   1.487       .  S
C328        C329   1.406       .  A
C329        C330   1.403       .  A
C329        H333   1.084       .  S
C330       C1009   1.475       .  S
C330        C331   1.401       .  A
C331        H334   1.084       .  S
C335        C949   1.475       .  S
C335        C336   1.407       .  A
C335        C340   1.403       .  A
C336        C337   1.406       .  A
C336        H341   1.084       .  S
C337        C973   1.478       .  S
C337        C338   1.400       .  A
C338        C339   1.400       .  A
C338        H342   1.085       .  S
C339        C961   1.481       .  S
C339        C340   1.400       .  A
C340        H343   1.084       .  S
C344       C1216   1.487       .  S
C344        C345   1.406   1_545  A
C344        C349   1.408       .  A
C345        C346   1.402       .  A
C345        H350   1.083       .  S
C346       C1021   1.488       .  S
C346        C347   1.404       .  A
C347        C348   1.402       .  A
C347        H351   1.084       .  S
C348        C976   1.483       .  S
C348        C349   1.403   1_565  A
C349        H352   1.083       .  S
C353        C913   1.482       .  S
C353        C354   1.407       .  A
C353        C358   1.406       .  A
C354        C355   1.402       .  A
C354        H359   1.083       .  S
C355        C940   1.478       .  S
C355        C356   1.399       .  A
C356        C357   1.402       .  A
C356        H360   1.084       .  S
C357        C925   1.485       .  S
C357        C358   1.401       .  A
C358        H361   1.083       .  S
C362       C1204   1.487       .  S
C362        C363   1.409   1_655  A
C362        C367   1.409       .  A
C363        C364   1.406       .  A
C363        H368   1.081   1_455  S
C364       C1048   1.492       .  S
C364        C365   1.404       .  A
C365        C366   1.397       .  A
C365        H369   1.084       .  S
C366        C937   1.473       .  S
C366        C367   1.399   1_455  A
C367        H370   1.083       .  S
O371        C386   1.255       .  A
O371       Al379   1.875       .  S
C372        O382   1.256       .  A
C372        O373   1.268       .  A
C372        C928   1.483       .  S
O373       Al375   1.943       .  S
O374        C376   1.257       .  A
O374       Al375   1.869       .  S
Al375       O383   1.885       .  S
Al375       O385   1.937       .  S
Al375       O384   1.777       .  S
C376        O389   1.267       .  A
C376        C964   1.483       .  S
O377        C387   1.255       .  A
O377       Al379   1.871       .  S
O378        C391   1.260       .  A
O378       Al388   1.878       .  S
Al379       O392   1.931       .  S
Al379       O389   1.938       .  S
Al379       O384   1.774       .  S
O380        C387   1.264       .  A
O380       Al388   1.932       .  S
O381        C390   1.265       .  A
O381       Al388   1.926       .  S
O382       Al388   1.863       .  S
O383        C390   1.260       .  A
O384       Al388   1.772       .  S
O385        C386   1.265       .  A
C386        C877   1.463       .  S
C387        C997   1.463       .  S
C390        C889   1.482       .  S
C391        O392   1.267       .  A
C391        C904   1.481       .  S
C393        C841   1.479       .  S
C393        C394   1.404       .  A
C393        C398   1.406       .  A
C394        C395   1.402       .  A
C394        H399   1.083       .  S
C395        C865   1.481       .  S
C395        C396   1.401       .  A
C396        C397   1.403       .  A
C396        H400   1.084       .  S
C397        C856   1.488       .  S
C397        C398   1.402       .  A
C398        H401   1.082       .  S
C402        C901   1.481       .  S
C402        C403   1.405       .  A
C402        C407   1.404       .  A
C403        C404   1.401       .  A
C403        H408   1.083       .  S
C404        C868   1.468       .  S
C404        C405   1.398       .  A
C405        C406   1.399       .  A
C405        H409   1.084       .  S
C406        C832   1.476       .  S
C406        C407   1.400       .  A
C407        H410   1.084       .  S
O411        C426   1.271       .  A
O411       Al419   1.951   1_545  S
C412        O422   1.269       .  A
C412        O413   1.257       .  A
C412        C853   1.484       .  S
O413       Al415   1.863   1_655  S
O414        C416   1.266       .  A
O414       Al415   1.944       .  S
Al415       O423   1.934   1_455  S
Al415       O425   1.877       .  S
Al415       O424   1.774   1_455  S
C416        O429   1.255       .  A
C416        C772   1.462       .  S
O417        C427   1.269       .  A
O417       Al419   1.955   1_655  S
O418        C431   1.268       .  A
O418       Al428   1.942       .  S
Al419       O432   1.876       .  S
Al419       O429   1.878   1_565  S
Al419       O424   1.774   1_465  S
O420        C427   1.253       .  A
O420       Al428   1.857       .  S
O421        C430   1.257   1_565  A
O421       Al428   1.879       .  S
O422       Al428   1.948   1_545  S
O423        C430   1.265       .  A
O424       Al428   1.771   1_545  S
O425        C426   1.258       .  A
C426        C808   1.465       .  S
C427        C781   1.487       .  S
C430        C793   1.467       .  S
C431        O432   1.257   1_655  A
C431        C820   1.466       .  S
C433        C757   1.473       .  S
C433        C434   1.406       .  A
C433        C438   1.401       .  A
C434        C435   1.407       .  A
C434        H439   1.084       .  S
C435        C880   1.475       .  S
C435        C436   1.403       .  A
C436        C437   1.394       .  A
C436        H440   1.085       .  S
C437        C745   1.467       .  S
C437        C438   1.395       .  A
C438        H441   1.085       .  S
C442        C760   1.480       .  S
C442        C443   1.401       .  A
C442        C447   1.401       .  A
C443        C444   1.404       .  A
C443        H448   1.084       .  S
C444        C784   1.487       .  S
C444        C445   1.402       .  A
C445        C446   1.406       .  A
C445        H449   1.083       .  S
C446        C733   1.478       .  S
C446        C447   1.405       .  A
C447        H450   1.084       .  S
C451        C892   1.480       .  S
C451        C452   1.406       .  A
C451        C456   1.406       .  A
C452        C453   1.401       .  A
C452        H457   1.083       .  S
C453        C721   1.474       .  S
C453        C454   1.399       .  A
C454        C455   1.404       .  A
C454        H458   1.084       .  S
C455        C709   1.487       .  S
C455        C456   1.403       .  A
C456        H459   1.083       .  S
C460        C700   1.485       .  S
C460        C461   1.404       .  A
C460        C465   1.406       .  A
C461        C462   1.402       .  A
C461        H466   1.084       .  S
C462        C769   1.483       .  S
C462        C463   1.403       .  A
C463        C464   1.403       .  A
C463        H467   1.083       .  S
C464        C724   1.480       .  S
C464        C465   1.404       .  A
C465        H468   1.083       .  S
O469        C484   1.268       .  A
O469       Al477   1.933   1_455  S
C470        O480   1.271       .  A
C470        O471   1.257   1_565  A
C470        C712   1.486       .  S
O471       Al473   1.865       .  S
O472        C474   1.263       .  A
O472       Al473   1.930       .  S
Al473       O481   1.923   1_545  S
Al473       O483   1.882       .  S
Al473       O482   1.776   1_445  S
C474        O487   1.255   1_455  A
C474        C829   1.457       .  S
O475        C485   1.264       .  A
O475       Al477   1.929   1_565  S
O476        C489   1.267       .  A
O476       Al486   1.941       .  S
Al477       O490   1.872       .  S
Al477       O487   1.877       .  S
Al477       O482   1.773   1_545  S
O478        C485   1.256       .  A
O478       Al486   1.871       .  S
O479        C488   1.258   1_655  A
O479       Al486   1.883       .  S
O480       Al486   1.952   1_455  S
O481        C488   1.264       .  A
O482       Al486   1.777       .  S
O483        C484   1.261       .  A
C484        C988   1.481       .  S
C485        C748   1.471       .  S
C488        C916   1.481       .  S
C489        O490   1.257   1_565  A
C489        C952   1.467       .  S
O491        C506   1.256       .  A
O491       Al499   1.886       .  S
C492        O502   1.256       .  A
C492        O493   1.268       .  A
C492        C661   1.483       .  S
O493       Al495   1.947       .  S
O494        C496   1.259       .  A
O494       Al495   1.872       .  S
Al495       O503   1.885       .  S
Al495       O505   1.946       .  S
Al495       O504   1.776       .  S
C496        O509   1.271       .  A
C496        C685   1.486       .  S
O497        C507   1.253       .  A
O497       Al499   1.853       .  S
O498        C511   1.258       .  A
O498       Al508   1.876       .  S
Al499       O512   1.947       .  S
Al499       O509   1.952       .  S
Al499       O504   1.769       .  S
O500        C507   1.268       .  A
O500       Al508   1.952       .  S
O501        C510   1.270       .  A
O501       Al508   1.942       .  S
O502       Al508   1.868       .  S
O503        C510   1.262       .  A
O504       Al508   1.773       .  S
O505        C506   1.267       .  A
C506       C1504   1.470       .  S
C507        C673   1.485       .  S
C510       C1552   1.488       .  S
C511        O512   1.270       .  A
C511       C1477   1.490       .  S
C513       C1660   1.473       .  S
C513        C514   1.401       .  A
C513        C518   1.407       .  A
C514        C515   1.394       .  A
C514        H519   1.085       .  S
C515        C664   1.479       .  S
C515        C516   1.399       .  A
C516        C517   1.408       .  A
C516        H520   1.082       .  S
C517        C649   1.497       .  S
C517        C518   1.412       .  A
C518        H521   1.083       .  S
C522        C805   1.474       .  S
C522        C523   1.407       .  A
C522        C527   1.398       .  A
C523        C524   1.416       .  A
C523        H528   1.080       .  S
C524        C652   1.505       .  S
C524        C525   1.411       .  A
C525        C526   1.400       .  A
C525        H529   1.082       .  S
C526        C637   1.483       .  S
C526        C527   1.395       .  A
C527        H530   1.083       .  S
C531        C625   1.482       .  S
C531        C532   1.404   1_655  A
C531        C536   1.401       .  A
C532        C533   1.411       .  A
C532        H537   1.083       .  S
C533       C1648   1.491       .  S
C533        C534   1.409   1_455  A
C534        C535   1.402       .  A
C534        H538   1.082       .  S
C535        C688   1.484       .  S
C535        C536   1.401       .  A
C536        H539   1.084       .  S
C540        C628   1.479       .  S
C540        C541   1.407       .  A
C540        C545   1.403       .  A
C541        C542   1.406       .  A
C541        H546   1.084       .  S
C542        C817   1.476       .  S
C542        C543   1.403       .  A
C543        C544   1.399       .  A
C543        H547   1.084       .  S
C544        C613   1.483       .  S
C544        C545   1.401       .  A
C545        H548   1.084       .  S
C549       C1636   1.473       .  S
C549        C550   1.401   1_565  A
C549        C554   1.407       .  A
C550        C551   1.399       .  A
C550        H555   1.083       .  S
C551        C676   1.489       .  S
C551        C552   1.403       .  A
C552        C553   1.408       .  A
C552        H556   1.081       .  S
C553        C601   1.500       .  S
C553        C554   1.409   1_545  A
C554        H557   1.082       .  S
C558        C796   1.470       .  S
C558        C559   1.406       .  A
C558        C563   1.399       .  A
C559        C560   1.413       .  A
C559        H564   1.082       .  S
C560        C604   1.501       .  S
C560        C561   1.407       .  A
C561        C562   1.400       .  A
C561        H565   1.080       .  S
C562        C592   1.482       .  S
C562        C563   1.397       .  A
C563        H566   1.084       .  S
O567        C582   1.256       .  A
O567       Al575   1.874       .  S
C568        O578   1.260       .  A
C568        O569   1.266       .  A
C568        C589   1.456       .  S
O569       Al571   1.931       .  S
O570        C572   1.256       .  A
O570       Al571   1.869       .  S
Al571       O579   1.889       .  S
Al571       O581   1.926       .  S
Al571       O580   1.774       .  S
C572        O585   1.267       .  A
C572        C616   1.484       .  S
O573        C583   1.254       .  A
O573       Al575   1.881       .  S
O574        C587   1.262       .  A
O574       Al584   1.879       .  S
Al575       O588   1.941       .  S
Al575       O585   1.935       .  S
Al575       O580   1.770       .  S
O576        C583   1.261       .  A
O576       Al584   1.928       .  S
O577        C586   1.265       .  A
O577       Al584   1.920       .  S
O578       Al584   1.882       .  S
O579        C586   1.260       .  A
O580       Al584   1.774       .  S
O581        C582   1.266       .  A
C582        C736   1.482       .  S
C583        C640   1.458       .  S
C586        C844   1.479       .  S
C587        O588   1.271       .  A
C587        C697   1.482       .  S
C589        C590   1.397       .  A
C589        C594   1.403       .  A
C590        C591   1.398       .  A
C590        H595   1.084       .  S
C591        C592   1.412       .  A
C591        O596   1.373       .  S
C592        C593   1.407       .  A
C593        C594   1.397       .  A
C593        H597   1.083       .  S
C594        O598   1.372       .  S
O596        H600   0.992       .  S
O598        H599   0.992       .  S
C601        C602   1.405       .  A
C601        C606   1.415       .  A
C602        C603   1.395       .  A
C602        H607   1.082       .  S
C603        C604   1.415       .  A
C603        O608   1.374       .  S
C604        C605   1.410       .  A
C605        C606   1.406       .  A
C605        H609   1.082       .  S
C606        O610   1.371   1_545  S
O608        H612   0.992       .  S
O610        H611   0.992       .  S
C613        C614   1.401       .  A
C613        C618   1.410       .  A
C614        C615   1.394       .  A
C614        H619   1.084       .  S
C615        C616   1.415       .  A
C615        O620   1.372       .  S
C616        C617   1.406       .  A
C617        C618   1.403       .  A
C617        H621   1.083       .  S
C618        O622   1.372       .  S
O620        H624   0.992       .  S
O622        H623   0.992       .  S
C625        C626   1.402       .  A
C625        C630   1.412       .  A
C626        C627   1.399       .  A
C626        H631   1.084       .  S
C627        C628   1.411       .  A
C627        O632   1.372       .  S
C628        C629   1.400       .  A
C629        C630   1.401       .  A
C629        H633   1.084       .  S
C630        O634   1.372       .  S
O632        H636   0.992       .  S
O634        H635   0.992       .  S
C637        C638   1.408       .  A
C637        C642   1.412       .  A
C638        C639   1.397       .  A
C638        H643   1.084       .  S
C639        C640   1.402       .  A
C639        O644   1.372       .  S
C640        C641   1.399       .  A
C641        C642   1.397       .  A
C641        H645   1.085       .  S
C642        O646   1.372       .  S
O644        H648   0.992       .  S
O646        H647   0.992       .  S
C649        C650   1.409       .  A
C649        C654   1.410       .  A
C650        C651   1.407       .  A
C650        H655   1.083       .  S
C651        C652   1.416       .  A
C651        O656   1.370       .  S
C652        C653   1.409       .  A
C653        C654   1.395       .  A
C653        H657   1.081       .  S
C654        O658   1.375       .  S
O656        H660   0.992       .  S
O658        H659   0.992       .  S
C661        C662   1.406       .  A
C661        C666   1.415       .  A
C662        C663   1.403       .  A
C662        H667   1.083       .  S
C663        C664   1.409       .  A
C663        O668   1.371       .  S
C664        C665   1.399       .  A
C665        C666   1.392       .  A
C665        H669   1.084       .  S
C666        O670   1.372       .  S
O668        H672   0.992       .  S
O670        H671   0.992       .  S
C673        C674   1.405       .  A
C673        C678   1.415       .  A
C674        C675   1.407       .  A
C674        H679   1.083       .  S
C675        C676   1.413       .  A
C675        O680   1.372       .  S
C676        C677   1.402       .  A
C677        C678   1.389       .  A
C677        H681   1.083       .  S
C678        O682   1.373       .  S
O680        H684   0.992       .  S
O682        H683   0.992       .  S
C685        C686   1.407       .  A
C685        C690   1.411       .  A
C686        C687   1.396       .  A
C686        H691   1.084       .  S
C687        C688   1.407       .  A
C687        O692   1.373       .  S
C688        C689   1.406       .  A
C689        C690   1.406       .  A
C689        H693   1.084       .  S
C690        O694   1.371       .  S
O692        H696   0.992       .  S
O694        H695   0.991       .  S
C697        C698   1.406       .  A
C697        C702   1.410       .  A
C698        C699   1.397       .  A
C698        H703   1.083       .  S
C699        C700   1.409       .  A
C699        O704   1.372       .  S
C700        C701   1.407       .  A
C701        C702   1.400       .  A
C701        H705   1.084       .  S
C702        O706   1.371       .  S
O704        H708   0.992       .  S
O706        H707   0.992       .  S
C709        C710   1.402       .  A
C709        C714   1.412       .  A
C710        C711   1.392       .  A
C710        H715   1.083       .  S
C711        C712   1.415       .  A
C711        O716   1.372   1_565  S
C712        C713   1.407       .  A
C713        C714   1.405       .  A
C713        H717   1.083       .  S
C714        O718   1.371       .  S
O716        H720   0.992       .  S
O718        H719   0.992       .  S
C721        C722   1.400       .  A
C721        C726   1.409   1_565  A
C722        C723   1.401       .  A
C722        H727   1.084       .  S
C723        C724   1.412   1_565  A
C723        O728   1.371       .  S
C724        C725   1.402       .  A
C725        C726   1.398       .  A
C725        H729   1.084       .  S
C726        O730   1.372       .  S
O728        H732   0.992       .  S
O730        H731   0.992       .  S
C733        C734   1.401       .  A
C733        C738   1.408       .  A
C734        C735   1.396       .  A
C734        H739   1.084       .  S
C735        C736   1.415       .  A
C735        O740   1.372       .  S
C736        C737   1.406       .  A
C737        C738   1.399       .  A
C737        H741   1.083       .  S
C738        O742   1.371       .  S
O740        H744   0.992       .  S
O742        H743   0.992       .  S
C745        C746   1.398       .  A
C745        C750   1.405       .  A
C746        C747   1.392       .  A
C746        H751   1.084       .  S
C747        C748   1.411       .  A
C747        O752   1.372       .  S
C748        C749   1.405       .  A
C749        C750   1.402       .  A
C749        H753   1.084       .  S
C750        O754   1.371       .  S
O752        H756   0.992       .  S
O754        H755   0.992       .  S
C757        C758   1.399       .  A
C757        C762   1.409       .  A
C758        C759   1.400       .  A
C758        H763   1.084       .  S
C759        C760   1.412       .  A
C759        O764   1.373       .  S
C760        C761   1.402       .  A
C761        C762   1.399       .  A
C761        H765   1.084       .  S
C762        O766   1.372       .  S
O764        H768   0.992       .  S
O766        H767   0.992       .  S
C769        C770   1.405       .  A
C769        C774   1.412       .  A
C770        C771   1.396       .  A
C770        H775   1.084       .  S
C771        C772   1.403       .  A
C771        O776   1.372       .  S
C772        C773   1.400       .  A
C773        C774   1.403       .  A
C773        H777   1.084       .  S
C774        O778   1.373       .  S
O776        H780   0.991       .  S
O778        H779   0.992       .  S
C781        C782   1.407       .  A
C781        C786   1.416       .  A
C782        C783   1.408       .  A
C782        H787   1.083       .  S
C783        C784   1.412       .  A
C783        O788   1.372       .  S
C784        C785   1.401       .  A
C785        C786   1.390       .  A
C785        H789   1.084       .  S
C786        O790   1.373       .  S
O788        H792   0.992       .  S
O790        H791   0.992       .  S
C793        C794   1.404       .  A
C793        C798   1.407       .  A
C794        C795   1.406       .  A
C794        H799   1.083       .  S
C795        C796   1.407       .  A
C795        O800   1.371       .  S
C796        C797   1.399       .  A
C797        C798   1.392       .  A
C797        H801   1.084       .  S
C798        O802   1.373       .  S
O800        H804   0.992       .  S
O802        H803   0.992       .  S
C805        C806   1.406       .  A
C805        C810   1.406       .  A
C806        C807   1.408       .  A
C806        H811   1.083       .  S
C807        C808   1.406       .  A
C807        O812   1.371       .  S
C808        C809   1.399       .  A
C809        C810   1.392       .  A
C809        H813   1.084       .  S
C810        O814   1.373       .  S
O812        H816   0.992       .  S
O814        H815   0.992       .  S
C817        C818   1.401       .  A
C817        C822   1.409       .  A
C818        C819   1.391       .  A
C818        H823   1.084       .  S
C819        C820   1.406       .  A
C819        O824   1.372       .  S
C820        C821   1.403       .  A
C821        C822   1.407       .  A
C821        H825   1.083       .  S
C822        O826   1.371       .  S
O824        H828   0.992   1_655  S
O826        H827   0.992       .  S
C829        C830   1.399       .  A
C829        C834   1.403       .  A
C830        C831   1.401       .  A
C830        H835   1.084       .  S
C831        C832   1.410       .  A
C831        O836   1.372       .  S
C832        C833   1.403       .  A
C833        C834   1.394       .  A
C833        H837   1.084       .  S
C834        O838   1.372       .  S
O836        H840   0.992       .  S
O838        H839   0.992       .  S
C841        C842   1.403       .  A
C841        C846   1.407       .  A
C842        C843   1.398       .  A
C842        H847   1.084       .  S
C843        C844   1.413       .  A
C843        O848   1.371       .  S
C844        C845   1.405       .  A
C845        C846   1.398       .  A
C845        H849   1.084       .  S
C846        O850   1.373       .  S
O848        H852   0.992       .  S
O850        H851   0.992       .  S
C853        C854   1.407       .  A
C853        C858   1.413       .  A
C854        C855   1.407       .  A
C854        H859   1.083       .  S
C855        C856   1.412       .  A
C855        O860   1.372       .  S
C856        C857   1.403       .  A
C857        C858   1.389       .  A
C857        H861   1.083       .  S
C858        O862   1.372   1_655  S
O860        H864   0.992       .  S
O862        H863   0.992       .  S
C865        C866   1.408   1_655  A
C865        C870   1.409       .  A
C866        C867   1.395       .  A
C866        H871   1.084       .  S
C867        C868   1.402       .  A
C867        O872   1.372       .  S
C868        C869   1.403   1_455  A
C869        C870   1.401       .  A
C869        H873   1.084       .  S
C870        O874   1.372       .  S
O872        H876   0.992       .  S
O874        H875   0.992       .  S
C877        C878   1.403       .  A
C877        C882   1.405       .  A
C878        C879   1.407       .  A
C878        H883   1.083       .  S
C879        C880   1.409       .  A
C879        O884   1.371       .  S
C880        C881   1.401       .  A
C881        C882   1.389       .  A
C881        H885   1.084       .  S
C882        O886   1.372       .  S
O884        H888   0.992       .  S
O886        H887   0.992       .  S
C889        C890   1.407       .  A
C889        C894   1.412       .  A
C890        C891   1.398       .  A
C890        H895   1.083       .  S
C891        C892   1.408       .  A
C891        O896   1.372       .  S
C892        C893   1.403       .  A
C893        C894   1.399       .  A
C893        H897   1.084       .  S
C894        O898   1.371       .  S
O896        H900   0.992       .  S
O898        H899   0.992       .  S
C901        C902   1.405       .  A
C901        C906   1.408       .  A
C902        C903   1.398       .  A
C902        H907   1.084       .  S
C903        C904   1.411       .  A
C903        O908   1.371       .  S
C904        C905   1.407       .  A
C905        C906   1.397       .  A
C905        H909   1.084       .  S
C906        O910   1.372       .  S
O908        H912   0.992       .  S
O910        H911   0.992       .  S
C913        C914   1.405       .  A
C913        C918   1.408       .  A
C914        C915   1.398       .  A
C914        H919   1.084       .  S
C915        C916   1.411       .  A
C915        O920   1.372       .  S
C916        C917   1.406       .  A
C917        C918   1.398       .  A
C917        H921   1.083   1_455  S
C918        O922   1.372   1_455  S
O920        H924   0.992   1_565  S
O922        H923   0.992       .  S
C925        C926   1.402       .  A
C925        C930   1.411       .  A
C926        C927   1.389       .  A
C926        H931   1.083       .  S
C927        C928   1.413       .  A
C927        O932   1.372       .  S
C928        C929   1.407       .  A
C929        C930   1.406       .  A
C929        H933   1.083       .  S
C930        O934   1.372       .  S
O932        H936   0.992       .  S
O934        H935   0.992       .  S
C937        C938   1.398       .  A
C937        C942   1.410       .  A
C938        C939   1.398       .  A
C938        H943   1.084       .  S
C939        C940   1.413       .  A
C939        O944   1.372       .  S
C940        C941   1.401       .  A
C941        C942   1.401       .  A
C941        H945   1.084       .  S
C942        O946   1.372       .  S
O944        H948   0.992       .  S
O946        H947   0.992       .  S
C949        C950   1.406       .  A
C949        C954   1.406       .  A
C950        C951   1.407       .  A
C950        H955   1.083       .  S
C951        C952   1.406       .  A
C951        O956   1.371       .  S
C952        C953   1.400       .  A
C953        C954   1.392       .  A
C953        H957   1.085       .  S
C954        O958   1.373       .  S
O956        H960   0.992       .  S
O958        H959   0.992       .  S
C961        C962   1.401       .  A
C961        C966   1.409       .  A
C962        C963   1.392       .  A
C962        H967   1.084       .  S
C963        C964   1.415       .  A
C963        O968   1.372       .  S
C964        C965   1.407       .  A
C965        C966   1.402       .  A
C965        H969   1.083       .  S
C966        O970   1.371       .  S
O968        H972   0.992       .  S
O970        H971   0.992       .  S
C973        C974   1.400       .  A
C973        C978   1.411       .  A
C974        C975   1.401       .  A
C974        H979   1.084       .  S
C975        C976   1.413       .  A
C975        O980   1.372       .  S
C976        C977   1.402       .  A
C977        C978   1.399       .  A
C977        H981   1.084       .  S
C978        O982   1.372       .  S
O980        H984   0.992       .  S
O982        H983   0.992   1_565  S
C985        C986   1.404       .  A
C985        C990   1.407       .  A
C986        C987   1.399       .  A
C986        H991   1.084       .  S
C987        C988   1.410       .  A
C987        O992   1.372       .  S
C988        C989   1.407       .  A
C989        C990   1.398       .  A
C989        H993   1.084       .  S
C990        O994   1.372       .  S
O992        H996   0.992       .  S
O994        H995   0.992       .  S
C997        C998   1.402       .  A
C997       C1002   1.406       .  A
C998        C999   1.402       .  A
C998       H1003   1.083       .  S
C999       C1000   1.407       .  A
C999       O1004   1.371       .  S
C1000      C1001   1.399       .  A
C1001      C1002   1.393       .  A
C1001      H1005   1.084       .  S
C1002      O1006   1.372       .  S
O1004      H1008   0.992       .  S
O1006      H1007   0.992       .  S
C1009      C1010   1.404       .  A
C1009      C1014   1.405       .  A
C1010      C1011   1.401       .  A
C1010      H1015   1.084       .  S
C1011      C1012   1.407       .  A
C1011      O1016   1.371       .  S
C1012      C1013   1.405       .  A
C1013      C1014   1.398       .  A
C1013      H1017   1.084       .  S
C1014      O1018   1.372       .  S
O1016      H1020   0.992       .  S
O1018      H1019   0.992       .  S
C1021      C1022   1.401       .  A
C1021      C1026   1.411       .  A
C1022      C1023   1.394       .  A
C1022      H1027   1.084       .  S
C1023      C1024   1.416       .  A
C1023      O1028   1.372       .  S
C1024      C1025   1.406       .  A
C1025      C1026   1.406       .  A
C1025      H1029   1.083       .  S
C1026      O1030   1.372       .  S
O1028      H1032   0.992       .  S
O1030      H1031   0.992       .  S
C1033      C1034   1.397       .  A
C1033      C1038   1.404       .  A
C1034      C1035   1.399       .  A
C1034      H1039   1.084       .  S
C1035      C1036   1.415       .  A
C1035      O1040   1.372       .  S
C1036      C1037   1.407       .  A
C1037      C1038   1.400       .  A
C1037      H1041   1.083       .  S
C1038      O1042   1.372       .  S
O1040      H1044   0.992       .  S
O1042      H1043   0.992       .  S
C1045      C1046   1.405       .  A
C1045      C1050   1.414       .  A
C1046      C1047   1.407       .  A
C1046      H1051   1.083       .  S
C1047      C1048   1.414       .  A
C1047      O1052   1.372       .  S
C1048      C1049   1.404       .  A
C1049      C1050   1.390       .  A
C1049      H1053   1.083       .  S
C1050      O1054   1.372       .  S
O1052      H1056   0.992       .  S
O1054      H1055   0.992       .  S
C1057      C1058   1.408       .  A
C1057      C1062   1.410       .  A
C1058      C1059   1.397       .  A
C1058      H1063   1.084       .  S
C1059      C1060   1.405       .  A
C1059      O1064   1.373       .  S
C1060      C1061   1.408       .  A
C1061      C1062   1.408       .  A
C1061      H1065   1.083       .  S
C1062      O1066   1.371       .  S
O1064      H1068   0.992       .  S
O1066      H1067   0.992       .  S
C1069      C1070   1.393       .  A
C1069      C1074   1.408       .  A
C1070      C1071   1.393       .  A
C1070      H1075   1.085       .  S
C1071      C1072   1.416       .  A
C1071      O1076   1.373       .  S
C1072      C1073   1.408       .  A
C1073      C1074   1.411       .  A
C1073      H1077   1.083       .  S
C1074      O1078   1.371       .  S
O1076      H1080   0.992       .  S
O1078      H1079   0.991       .  S
C1081      C1082   1.411       .  A
C1081      C1086   1.412       .  A
C1082      C1083   1.412       .  A
C1082      H1087   1.083       .  S
C1083      C1084   1.417       .  A
C1083      O1088   1.370       .  S
C1084      C1085   1.409       .  A
C1085      C1086   1.398       .  A
C1085      H1089   1.082       .  S
C1086      O1090   1.374       .  S
O1088      H1092   0.992       .  S
O1090      H1091   0.992       .  S
C1093      C1094   1.406       .  A
C1093      C1098   1.417       .  A
C1094      C1095   1.406       .  A
C1094      H1099   1.083       .  S
C1095      C1096   1.412       .  A
C1095      O1100   1.373       .  S
C1096      C1097   1.401       .  A
C1097      C1098   1.395       .  A
C1097      H1101   1.084       .  S
C1098      O1102   1.372       .  S
O1100      H1104   0.992       .  S
O1102      H1103   0.992       .  S
C1105      C1106   1.406       .  A
C1105      C1110   1.405       .  A
C1106      C1107   1.407       .  A
C1106      H1111   1.083       .  S
C1107      C1108   1.406       .  A
C1107      O1112   1.371       .  S
C1108      C1109   1.402       .  A
C1109      C1110   1.393       .  A
C1109      H1113   1.084       .  S
C1110      O1114   1.373       .  S
O1112      H1116   0.992       .  S
O1114      H1115   0.992       .  S
C1117      C1118   1.402       .  A
C1117      C1122   1.412       .  A
C1118      C1119   1.401       .  A
C1118      H1123   1.084       .  S
C1119      C1120   1.410       .  A
C1119      O1124   1.372       .  S
C1120      C1121   1.401       .  A
C1121      C1122   1.401       .  A
C1121      H1125   1.084       .  S
C1122      O1126   1.372       .  S
O1124      H1128   0.992       .  S
O1126      H1127   0.992       .  S
C1129      C1130   1.400       .  A
C1129      C1134   1.414       .  A
C1130      C1131   1.389       .  A
C1130      H1135   1.083       .  S
C1131      C1132   1.418       .  A
C1131      O1136   1.373       .  S
C1132      C1133   1.405       .  A
C1133      C1134   1.408       .  A
C1133      H1137   1.083       .  S
C1134      O1138   1.372       .  S
O1136      H1140   0.992       .  S
O1138      H1139   0.992       .  S
C1141      C1142   1.405       .  A
C1141      C1146   1.408       .  A
C1142      C1143   1.399       .  A
C1142      H1147   1.084       .  S
C1143      C1144   1.411       .  A
C1143      O1148   1.371       .  S
C1144      C1145   1.407       .  A
C1145      C1146   1.399       .  A
C1145      H1149   1.083       .  S
C1146      O1150   1.372       .  S
O1148      H1152   0.992       .  S
O1150      H1151   0.992       .  S
C1153      C1154   1.408       .  A
C1153      C1158   1.412       .  A
C1154      C1155   1.407       .  A
C1154      H1159   1.083       .  S
C1155      C1156   1.416       .  A
C1155      O1160   1.371       .  S
C1156      C1157   1.406       .  A
C1157      C1158   1.396       .  A
C1157      H1161   1.082       .  S
C1158      O1162   1.374       .  S
O1160      H1164   0.992       .  S
O1162      H1163   0.992       .  S
C1165      C1166   1.405       .  A
C1165      C1170   1.415       .  A
C1166      C1167   1.404       .  A
C1166      H1171   1.083       .  S
C1167      C1168   1.410       .  A
C1167      O1172   1.371       .  S
C1168      C1169   1.398       .  A
C1169      C1170   1.390       .  A
C1169      H1173   1.084       .  S
C1170      O1174   1.372       .  S
O1172      H1176   0.992       .  S
O1174      H1175   0.992   1_554  S
C1177      C1178   1.406       .  A
C1177      C1182   1.415       .  A
C1178      C1179   1.403       .  A
C1178      H1183   1.083       .  S
C1179      C1180   1.410       .  A
C1179      O1184   1.372       .  S
C1180      C1181   1.402       .  A
C1181      C1182   1.395       .  A
C1181      H1185   1.084       .  S
C1182      O1186   1.372       .  S
O1184      H1188   0.992       .  S
O1186      H1187   0.992       .  S
C1189      C1190   1.396       .  A
C1189      C1194   1.404       .  A
C1190      C1191   1.393       .  A
C1190      H1195   1.085   1_554  S
C1191      C1192   1.409       .  A
C1191      O1196   1.373       .  S
C1192      C1193   1.406       .  A
C1193      C1194   1.403       .  A
C1193      H1197   1.083       .  S
C1194      O1198   1.371       .  S
O1196      H1200   0.992       .  S
O1198      H1199   0.992       .  S
C1201      C1202   1.405       .  A
C1201      C1206   1.416       .  A
C1202      C1203   1.404       .  A
C1202      H1207   1.083       .  S
C1203      C1204   1.412       .  A
C1203      O1208   1.373       .  S
C1204      C1205   1.402       .  A
C1205      C1206   1.395       .  A
C1205      H1209   1.083       .  S
C1206      O1210   1.372       .  S
O1208      H1212   0.992       .  S
O1210      H1211   0.992       .  S
C1213      C1214   1.408       .  A
C1213      C1218   1.410       .  A
C1214      C1215   1.396       .  A
C1214      H1219   1.083       .  S
C1215      C1216   1.408       .  A
C1215      O1220   1.372       .  S
C1216      C1217   1.408       .  A
C1217      C1218   1.402       .  A
C1217      H1221   1.084       .  S
C1218      O1222   1.371       .  S
O1220      H1224   0.992       .  S
O1222      H1223   0.992       .  S
C1225      C1226   1.406       .  A
C1225      C1230   1.411       .  A
C1226      C1227   1.394       .  A
C1226      H1231   1.084       .  S
C1227      C1228   1.407       .  A
C1227      O1232   1.372       .  S
C1228      C1229   1.403       .  A
C1229      C1230   1.401       .  A
C1229      H1233   1.084       .  S
C1230      O1234   1.372       .  S
O1232      H1236   0.992       .  S
O1234      H1235   0.992       .  S
C1237      C1238   1.409       .  A
C1237      C1242   1.407       .  A
C1238      C1239   1.403       .  A
C1238      H1243   1.084       .  S
C1239      C1240   1.410       .  A
C1239      O1244   1.372       .  S
C1240      C1241   1.411       .  A
C1241      C1242   1.402       .  A
C1241      H1245   1.083       .  S
C1242      O1246   1.372       .  S
O1244      H1248   0.992       .  S
O1246      H1247   0.992       .  S
C1249      C1250   1.400       .  A
C1249      C1254   1.413       .  A
C1250      C1251   1.392       .  A
C1250      H1255   1.084   1_455  S
C1251      C1252   1.417       .  A
C1251      O1256   1.372   1_455  S
C1252      C1253   1.405       .  A
C1253      C1254   1.407       .  A
C1253      H1257   1.083       .  S
C1254      O1258   1.372       .  S
O1256      H1260   0.992       .  S
O1258      H1259   0.992       .  S
C1261      C1262   1.409       .  A
C1261      C1266   1.418       .  A
C1262      C1263   1.400   1_655  A
C1262      H1267   1.082       .  S
C1263      C1264   1.413       .  A
C1263      O1268   1.374       .  S
C1264      C1265   1.409       .  A
C1265      C1266   1.411   1_455  A
C1265      H1269   1.083       .  S
C1266      O1270   1.371       .  S
O1268      H1272   0.992       .  S
O1270      H1271   0.992       .  S
C1273      C1274   1.408       .  A
C1273      C1278   1.407       .  A
C1274      C1275   1.410       .  A
C1274      H1279   1.083       .  S
C1275      C1276   1.407       .  A
C1275      O1280   1.371       .  S
C1276      C1277   1.401       .  A
C1277      C1278   1.394       .  A
C1277      H1281   1.084       .  S
C1278      O1282   1.373       .  S
O1280      H1284   0.992       .  S
O1282      H1283   0.992       .  S
C1285      C1286   1.405       .  A
C1285      C1290   1.417       .  A
C1286      C1287   1.404       .  A
C1286      H1291   1.083       .  S
C1287      C1288   1.411       .  A
C1287      O1292   1.371       .  S
C1288      C1289   1.400       .  A
C1289      C1290   1.396       .  A
C1289      H1293   1.084       .  S
C1290      O1294   1.372       .  S
O1292      H1296   0.992       .  S
O1294      H1295   0.992       .  S
C1297      C1298   1.404       .  A
C1297      C1302   1.413       .  A
C1298      C1299   1.405       .  A
C1298      H1303   1.083       .  S
C1299      C1300   1.413       .  A
C1299      O1304   1.371       .  S
C1300      C1301   1.404       .  A
C1301      C1302   1.405       .  A
C1301      H1305   1.083       .  S
C1302      O1306   1.371       .  S
O1304      H1308   0.992       .  S
O1306      H1307   0.992       .  S
C1309      C1310   1.401       .  A
C1309      C1314   1.408       .  A
C1310      C1311   1.404       .  A
C1310      H1315   1.084       .  S
C1311      C1312   1.409       .  A
C1311      O1316   1.371       .  S
C1312      C1313   1.401       .  A
C1313      C1314   1.397       .  A
C1313      H1317   1.084       .  S
C1314      O1318   1.372       .  S
O1316      H1320   0.992       .  S
O1318      H1319   0.992       .  S
C1321      C1322   1.403       .  A
C1321      C1326   1.408       .  A
C1322      C1323   1.396       .  A
C1322      H1327   1.084       .  S
C1323      C1324   1.405       .  A
C1323      O1328   1.372       .  S
C1324      C1325   1.404       .  A
C1325      C1326   1.406       .  A
C1325      H1329   1.083       .  S
C1326      O1330   1.371   1_545  S
O1328      H1332   0.992       .  S
O1330      H1331   0.991       .  S
C1333      C1334   1.406       .  A
C1333      C1338   1.406       .  A
C1334      C1335   1.401       .  A
C1334      H1339   1.084       .  S
C1335      C1336   1.410       .  A
C1335      O1340   1.371       .  S
C1336      C1337   1.410       .  A
C1337      C1338   1.399       .  A
C1337      H1341   1.083       .  S
C1338      O1342   1.372       .  S
O1340      H1344   0.992       .  S
O1342      H1343   0.992       .  S
C1345      C1346   1.399       .  A
C1345      C1350   1.405       .  A
C1346      C1347   1.392       .  A
C1346      H1351   1.085       .  S
C1347      C1348   1.408       .  A
C1347      O1352   1.373       .  S
C1348      C1349   1.407       .  A
C1349      C1350   1.407       .  A
C1349      H1353   1.083       .  S
C1350      O1354   1.371       .  S
O1352      H1356   0.992       .  S
O1354      H1355   0.992       .  S
C1357      C1358   1.403       .  A
C1357      C1362   1.411       .  A
C1358      C1359   1.402       .  A
C1358      H1363   1.084       .  S
C1359      C1360   1.416       .  A
C1359      O1364   1.371   1_655  S
C1360      C1361   1.406       .  A
C1361      C1362   1.404       .  A
C1361      H1365   1.083       .  S
C1362      O1366   1.373       .  S
O1364      H1368   0.992       .  S
O1366      H1367   0.992       .  S
C1369      C1370   1.396       .  A
C1369      C1374   1.407       .  A
C1370      C1371   1.392       .  A
C1370      H1375   1.085       .  S
C1371      C1372   1.414       .  A
C1371      O1376   1.374       .  S
C1372      C1373   1.408       .  A
C1373      C1374   1.410       .  A
C1373      H1377   1.083       .  S
C1374      O1378   1.371       .  S
O1376      H1380   0.992       .  S
O1378      H1379   0.992       .  S
C1381      C1382   1.403       .  A
C1381      C1386   1.403       .  A
C1382      C1383   1.403       .  A
C1382      H1387   1.083       .  S
C1383      C1384   1.407       .  A
C1383      O1388   1.371       .  S
C1384      C1385   1.401       .  A
C1385      C1386   1.392       .  A
C1385      H1389   1.084       .  S
C1386      O1390   1.372       .  S
O1388      H1392   0.992   1_655  S
O1390      H1391   0.992       .  S
C1393      C1394   1.400       .  A
C1393      C1398   1.414       .  A
C1394      C1395   1.393       .  A
C1394      H1399   1.083   1_565  S
C1395      C1396   1.418       .  A
C1395      O1400   1.372   1_565  S
C1396      C1397   1.406       .  A
C1397      C1398   1.406       .  A
C1397      H1401   1.083       .  S
C1398      O1402   1.371       .  S
O1400      H1404   0.992       .  S
O1402      H1403   0.992       .  S
C1405      C1406   1.407       .  A
C1405      C1410   1.418       .  A
C1406      C1407   1.394   1_565  A
C1406      H1411   1.082       .  S
C1407      C1408   1.414       .  A
C1407      O1412   1.372       .  S
C1408      C1409   1.409       .  A
C1409      C1410   1.411   1_545  A
C1409      H1413   1.082       .  S
C1410      O1414   1.371       .  S
O1412      H1416   0.992       .  S
O1414      H1415   0.992       .  S
C1417      C1418   1.405       .  A
C1417      C1422   1.417       .  A
C1418      C1419   1.404       .  A
C1418      H1423   1.083       .  S
C1419      C1420   1.411       .  A
C1419      O1424   1.373       .  S
C1420      C1421   1.401       .  A
C1421      C1422   1.401       .  A
C1421      H1425   1.084       .  S
C1422      O1426   1.372       .  S
O1424      H1428   0.992       .  S
O1426      H1427   0.992       .  S
C1429      C1430   1.405       .  A
C1429      C1434   1.419       .  A
C1430      C1431   1.402       .  A
C1430      H1435   1.083       .  S
C1431      C1432   1.412       .  A
C1431      O1436   1.372       .  S
C1432      C1433   1.401       .  A
C1433      C1434   1.403       .  A
C1433      H1437   1.084       .  S
C1434      O1438   1.372       .  S
O1436      H1440   0.992       .  S
O1438      H1439   0.992       .  S
C1441      C1442   1.405       .  A
C1441      C1446   1.418       .  A
C1442      C1443   1.406       .  A
C1442      H1447   1.083       .  S
C1443      C1444   1.414       .  A
C1443      O1448   1.373       .  S
C1444      C1445   1.402       .  A
C1445      C1446   1.400       .  A
C1445      H1449   1.083       .  S
C1446      O1450   1.372       .  S
O1448      H1452   0.992       .  S
O1450      H1451   0.992       .  S
C1453      C1454   1.408       .  A
C1453      C1458   1.409       .  A
C1454      C1455   1.404       .  A
C1454      H1459   1.084       .  S
C1455      C1456   1.411       .  A
C1455      O1460   1.372   1_455  S
C1456      C1457   1.409       .  A
C1457      C1458   1.401       .  A
C1457      H1461   1.083   1_565  S
C1458      O1462   1.372       .  S
O1460      H1464   0.992   1_655  S
O1462      H1463   0.992       .  S
C1465      C1466   1.401       .  A
C1465      C1470   1.414       .  A
C1466      C1467   1.394       .  A
C1466      H1471   1.083       .  S
C1467      C1468   1.418       .  A
C1467      O1472   1.372       .  S
C1468      C1469   1.406       .  A
C1469      C1470   1.407       .  A
C1469      H1473   1.083       .  S
C1470      O1474   1.371       .  S
O1472      H1476   0.992       .  S
O1474      H1475   0.992       .  S
C1477      C1478   1.410       .  A
C1477      C1482   1.410       .  A
C1478      C1479   1.401       .  A
C1478      H1483   1.083       .  S
C1479      C1480   1.407       .  A
C1479      O1484   1.372       .  S
C1480      C1481   1.408       .  A
C1481      C1482   1.402       .  A
C1481      H1485   1.084       .  S
C1482      O1486   1.372       .  S
O1484      H1488   0.992       .  S
O1486      H1487   0.992       .  S
C1489      C1490   1.406       .  A
C1489      C1494   1.407       .  A
C1490      C1491   1.403       .  A
C1490      H1495   1.084       .  S
C1491      C1492   1.408       .  A
C1491      O1496   1.372       .  S
C1492      C1493   1.408       .  A
C1493      C1494   1.405       .  A
C1493      H1497   1.084       .  S
C1494      O1498   1.371       .  S
O1496      H1500   0.992   1_565  S
O1498      H1499   0.992       .  S
C1501      C1502   1.403       .  A
C1501      C1506   1.413       .  A
C1502      C1503   1.390       .  A
C1502      H1507   1.084       .  S
C1503      C1504   1.404       .  A
C1503      O1508   1.370       .  S
C1504      C1505   1.403       .  A
C1505      C1506   1.410       .  A
C1505      H1509   1.083       .  S
C1506      O1510   1.371       .  S
O1508      H1512   0.992       .  S
O1510      H1511   0.992       .  S
C1513      C1514   1.396       .  A
C1513      C1518   1.409       .  A
C1514      C1515   1.394       .  A
C1514      H1519   1.084       .  S
C1515      C1516   1.415       .  A
C1515      O1520   1.372   1_455  S
C1516      C1517   1.405       .  A
C1517      C1518   1.408       .  A
C1517      H1521   1.083       .  S
C1518      O1522   1.371       .  S
O1520      H1524   0.992       .  S
O1522      H1523   0.992       .  S
C1525      C1526   1.407       .  A
C1525      C1530   1.416       .  A
C1526      C1527   1.406       .  A
C1526      H1531   1.083       .  S
C1527      C1528   1.412       .  A
C1527      O1532   1.371       .  S
C1528      C1529   1.402       .  A
C1529      C1530   1.394       .  A
C1529      H1533   1.084       .  S
C1530      O1534   1.372       .  S
O1532      H1536   0.992       .  S
O1534      H1535   0.992       .  S
C1537      C1538   1.403       .  A
C1537      C1542   1.414       .  A
C1538      C1539   1.404       .  A
C1538      H1543   1.083       .  S
C1539      C1540   1.410       .  A
C1539      O1544   1.372       .  S
C1540      C1541   1.400       .  A
C1541      C1542   1.401       .  A
C1541      H1545   1.084       .  S
C1542      O1546   1.372       .  S
O1544      H1548   0.992       .  S
O1546      H1547   0.992       .  S
C1549      C1550   1.406       .  A
C1549      C1554   1.409       .  A
C1550      C1551   1.402       .  A
C1550      H1555   1.084       .  S
C1551      C1552   1.412       .  A
C1551      O1556   1.372       .  S
C1552      C1553   1.408       .  A
C1553      C1554   1.400       .  A
C1553      H1557   1.083       .  S
C1554      O1558   1.372       .  S
O1556      H1560   0.992       .  S
O1558      H1559   0.992       .  S
C1561      C1562   1.401       .  A
C1561      C1566   1.412       .  A
C1562      C1563   1.398       .  A
C1562      H1567   1.084       .  S
C1563      C1564   1.418       .  A
C1563      O1568   1.372       .  S
C1564      C1565   1.405       .  A
C1565      C1566   1.403       .  A
C1565      H1569   1.083       .  S
C1566      O1570   1.371       .  S
O1568      H1572   0.992       .  S
O1570      H1571   0.992       .  S
C1573      C1574   1.403       .  A
C1573      C1578   1.415       .  A
C1574      C1575   1.393       .  A
C1574      H1579   1.083       .  S
C1575      C1576   1.416       .  A
C1575      O1580   1.373       .  S
C1576      C1577   1.406       .  A
C1577      C1578   1.409       .  A
C1577      H1581   1.083       .  S
C1578      O1582   1.373       .  S
O1580      H1584   0.992       .  S
O1582      H1583   0.992       .  S
C1585      C1586   1.405       .  A
C1585      C1590   1.415       .  A
C1586      C1587   1.403       .  A
C1586      H1591   1.083       .  S
C1587      C1588   1.408       .  A
C1587      O1592   1.372       .  S
C1588      C1589   1.399       .  A
C1589      C1590   1.403       .  A
C1589      H1593   1.084       .  S
C1590      O1594   1.373       .  S
O1592      H1596   0.992       .  S
O1594      H1595   0.992       .  S
C1597      C1598   1.405       .  A
C1597      C1602   1.416       .  A
C1598      C1599   1.406       .  A
C1598      H1603   1.083       .  S
C1599      C1600   1.414       .  A
C1599      O1604   1.373       .  S
C1600      C1601   1.402       .  A
C1601      C1602   1.393       .  A
C1601      H1605   1.083       .  S
C1602      O1606   1.372       .  S
O1604      H1608   0.992       .  S
O1606      H1607   0.992       .  S
C1609      C1610   1.400       .  A
C1609      C1614   1.405       .  A
C1610      C1611   1.396       .  A
C1610      H1615   1.084       .  S
C1611      C1612   1.407       .  A
C1611      O1616   1.372       .  S
C1612      C1613   1.405       .  A
C1613      C1614   1.404       .  A
C1613      H1617   1.083       .  S
C1614      O1618   1.371       .  S
O1616      H1620   0.992       .  S
O1618      H1619   0.992       .  S
C1621      C1622   1.406       .  A
C1621      C1626   1.410       .  A
C1622      C1623   1.393       .  A
C1622      H1627   1.084       .  S
C1623      C1624   1.405       .  A
C1623      O1628   1.373       .  S
C1624      C1625   1.405       .  A
C1625      C1626   1.404       .  A
C1625      H1629   1.083       .  S
C1626      O1630   1.371       .  S
O1628      H1632   0.992       .  S
O1630      H1631   0.992       .  S
C1633      C1634   1.408       .  A
C1633      C1638   1.409       .  A
C1634      C1635   1.395       .  A
C1634      H1639   1.084       .  S
C1635      C1636   1.403       .  A
C1635      O1640   1.372       .  S
C1636      C1637   1.404       .  A
C1637      C1638   1.404       .  A
C1637      H1641   1.083       .  S
C1638      O1642   1.371       .  S
O1640      H1644   0.991       .  S
O1642      H1643   0.992       .  S
C1645      C1646   1.405       .  A
C1645      C1650   1.415       .  A
C1646      C1647   1.405       .  A
C1646      H1651   1.083       .  S
C1647      C1648   1.413       .  A
C1647      O1652   1.373       .  S
C1648      C1649   1.404       .  A
C1649      C1650   1.396       .  A
C1649      H1653   1.083       .  S
C1650      O1654   1.372       .  S
O1652      H1656   0.992       .  S
O1654      H1655   0.992       .  S
C1657      C1658   1.399       .  A
C1657      C1662   1.407       .  A
C1658      C1659   1.391       .  A
C1658      H1663   1.085       .  S
C1659      C1660   1.407       .  A
C1659      O1664   1.373       .  S
C1660      C1661   1.405       .  A
C1661      C1662   1.406       .  A
C1661      H1665   1.083       .  S
C1662      O1666   1.371       .  S
O1664      H1668   0.992       .  S
O1666      H1667   0.992       .  S
