geometry optimzed in LAMMPS
_audit_creation_date              2020-12-01 
_audit_creation_method            'lammps2cif' 
_symmetry_space_group_name_H-M    'P1' 
_symmetry_Int_Tables_number       1 
_symmetry_cell_setting            triclinic 
loop_ 
_symmetry_equiv_pos_as_xyz 
  x,y,z 
_cell_length_a                    29.03866058 
_cell_length_b                    29.25342878824603 
_cell_length_c                    29.12406277356091 
_cell_angle_alpha                 90.1066449557261 
_cell_angle_beta                  90.1391001357266 
_cell_angle_gamma                 89.90639599342282 
loop_ 
_atom_site_label 
_atom_site_type_symbol 
_atom_site_fract_x 
_atom_site_fract_y 
_atom_site_fract_z 
_atom_site_charge 
C1          C  0.44275139  0.60595401  0.86954308     0.42400
N2          N  0.45098512  0.56435005  0.92909803     0.01300
C3          C  0.64148058  0.55061932  0.06962297    -0.06600
H4          H  0.67030663  0.53214807  0.88735823     0.06800
C5          C  0.57869199  0.39279408  0.89292941    -0.06900
Co6        Co  0.53454491  0.58911995  0.98309254     0.74200
N7          N  0.61536021  0.55071763  0.93366633    -0.26100
Co8        Co  0.61165757  0.49866822  0.98164086     0.74100
C9          C  0.62052801  0.40880362  0.87108636     0.42500
N10         N  0.47248740  0.42981923  0.92516212     0.00900
N11         N  0.60766914  0.45003244  0.92996755     0.01000
N12         N  0.59009195  0.60895967  0.06989957    -0.46900
H13         H  0.50596822  0.64980234  0.88826372     0.06800
N14         N  0.58650954  0.58557690  0.93476414     0.01300
N15         N  0.60521947  0.44673958  0.02959030     0.01100
C16         C  0.61722173  0.40044548  0.08463064     0.42700
N17         N  0.44320890  0.46428520  0.92507754    -0.25600
C18         C  0.47606268  0.61761938  0.06781621    -0.06500
N19         N  0.42438205  0.57074199  0.89280359    -0.46700
N20         N  0.63417597  0.43762170  0.06342324    -0.46900
C21         C  0.43388564  0.60117589  0.08889272     0.42400
N22         N  0.58396677  0.58179459  0.03412850     0.01300
N23         N  0.43907498  0.46070621  0.02464110    -0.25600
N24         N  0.48543836  0.59355552  0.93128522    -0.26100
N25         N  0.46855199  0.42639718  0.02529497     0.00900
H26         H  0.38074816  0.47838023  0.06645493     0.06800
H27         H  0.55105458  0.35996167  0.06899019     0.06900
N28         N  0.61342901  0.54743775  0.03326930    -0.26100
N29         N  0.57313210  0.42084779  0.92871230    -0.25700
N30         N  0.44759359  0.56100387  0.02931851     0.01300
C31         C  0.62894391  0.59834041  0.87674123     0.42700
C32         C  0.41637747  0.46111548  0.88778935    -0.07000
N33         N  0.57032444  0.41796019  0.02786682    -0.25700
H34         H  0.55626238  0.36479056  0.88361659     0.06800
N35         N  0.59318939  0.61479809  0.90092747    -0.47000
H36         H  0.38822109  0.48377861  0.87930244     0.06800
C37         C  0.42222603  0.41273732  0.08032577     0.42500
C38         C  0.48272208  0.62191592  0.89529841    -0.06500
Co39       Co  0.44396697  0.51274235  0.97704733     0.73800
N40         N  0.46730067  0.40250091  0.88936796    -0.46700
C41         C  0.62620007  0.59172832  0.09336964     0.42800
N42         N  0.41763483  0.56655313  0.06303781    -0.46700
Co43       Co  0.52093546  0.42257240  0.97691332     0.73900
C44         C  0.57467747  0.38750420  0.06173769    -0.07000
C45         C  0.64349212  0.55565042  0.89772819    -0.06600
N46         N  0.48209262  0.59024472  0.03143014    -0.26100
N47         N  0.63736227  0.44374309  0.89613538    -0.46800
H48         H  0.66821926  0.52649226  0.07847942     0.06800
C49         C  0.40847663  0.45513294  0.05830568    -0.07000
Cl50       Cl  0.52781052  0.50576926  0.97980713    -0.50000
C51         C  0.43338887  0.42085629  0.86370703     0.42600
H52         H  0.49854453  0.64516704  0.07833789     0.06800
N53         N  0.46007757  0.39696102  0.05867123    -0.46700
C54         C  0.42030287  0.89484815  0.56481923     0.42400
N55         N  0.46224642  0.95407488  0.55546647     0.01300
C56         C  0.46701445  0.09884272  0.36946265    -0.06600
H57         H  0.48404906  0.92640944  0.32768142     0.06800
C58         C  0.62923200  0.92074287  0.42053822    -0.06900
Co59       Co  0.43386743  0.00836672  0.47386936     0.74200
N60         N  0.46926907  0.96384028  0.38918824    -0.26100
Co61       Co  0.52185977  0.01060681  0.39399667     0.74100
C62         C  0.61110387  0.89917219  0.37935362     0.42500
N63         N  0.59658100  0.95026507  0.52904640     0.00900
N64         N  0.57065009  0.95832767  0.39462527     0.01000
N65         N  0.41002161  0.09620297  0.42238340    -0.46900
H66         H  0.37727533  0.91099548  0.50016694     0.06800
N67         N  0.43577157  0.96213790  0.41952158     0.01300
N68         N  0.57473441  0.05762247  0.39993076     0.01100
C69         C  0.62196051  0.11122774  0.38620900     0.42700
N70         N  0.56334582  0.95097342  0.55981781    -0.25600
C71         C  0.40280339  0.08797774  0.53669900    -0.06500
N72         N  0.45657704  0.91790833  0.58202759    -0.46700
N73         N  0.58335572  0.09105262  0.37079601    -0.46900
C74         C  0.41913106  0.10850081  0.57908120     0.42400
N75         N  0.43883759  0.06137876  0.42674290     0.01300
N76         N  0.56753011  0.05038883  0.56507483    -0.25600
N77         N  0.43218259  0.95571033  0.52146194    -0.26100
N78         N  0.60112074  0.05015268  0.53465901     0.00900
H79         H  0.55459567  0.09152366  0.62515375     0.06800
H80         H  0.66738478  0.09301359  0.44835933     0.06900
N81         N  0.47246255  0.06216769  0.39630321    -0.26100
N82         N  0.60152867  0.95637307  0.42783780    -0.25700
N83         N  0.46437398  0.05378431  0.56087694     0.01300
C84         C  0.41894030  0.91092700  0.36980959     0.42700
C85         C  0.56633292  0.91337126  0.58562609    -0.07000
N86         N  0.60562940  0.05469591  0.43310969    -0.25700
H87         H  0.65793076  0.91087730  0.44195034     0.06800
N88         N  0.40497527  0.93031604  0.40954995    -0.47000
H89         H  0.54341673  0.90417285  0.61330382     0.06800
C90         C  0.61913170  0.10442297  0.58084639     0.42500
C91         C  0.40427349  0.91942596  0.52428508    -0.06500
Co92       Co  0.51438482  0.00258723  0.56157461     0.73800
N93         N  0.62258562  0.91308848  0.53197536    -0.46700
C94         C  0.42603005  0.12148358  0.38727696     0.42800
N95         N  0.45732179  0.08569225  0.59246499    -0.46700
Co96       Co  0.60235495  0.00289438  0.48134106     0.73900
C97         C  0.63721957  0.08744262  0.42726704    -0.07000
C98         C  0.46182386  0.93262323  0.35659617    -0.06600
N99         N  0.43314731  0.05468924  0.52788930    -0.26100
N100        N  0.57488395  0.92430754  0.36479211    -0.46800
H101        H  0.48874713  0.10821778  0.34089798     0.06800
C102        C  0.57579506  0.08362155  0.59571940    -0.07000
Cl103      Cl  0.51810056  0.00626408  0.47771233    -0.50000
C104        C  0.60502233  0.88810377  0.56665969     0.42600
H105        H  0.37289784  0.09629381  0.51620570     0.06800
N106        N  0.63240018  0.08204500  0.54261394    -0.46700
C107        C  0.91166887  0.60514479  0.57407038     0.42400
N108        N  0.97080668  0.56358118  0.56049284     0.01300
C109        C  0.10711996  0.56360107  0.36672121    -0.06600
H110        H  0.92740426  0.54421974  0.33742283     0.06800
C111        C  0.93622394  0.39788889  0.42506852    -0.06900
Co112      Co  0.02170594  0.59399721  0.47693282     0.74200
N113        N  0.97177873  0.55905240  0.39499462    -0.26100
Co114      Co  0.02126742  0.50775044  0.39556589     0.74100
C115        C  0.91310368  0.41463070  0.38415177     0.42500
N116        N  0.97112762  0.42944817  0.53235028     0.00900
N117        N  0.97056658  0.45771052  0.39840956     0.01000
N118        N  0.10577903  0.62040931  0.41980840    -0.46900
H119        H  0.92613096  0.65094279  0.51145894     0.06800
N120        N  0.97180553  0.59196911  0.42602752     0.01300
N121        N  0.07104064  0.45669601  0.39846539     0.01100
C122        C  0.12732464  0.41201233  0.38406268     0.42700
N123        N  0.97045023  0.46222741  0.56345481    -0.25600
C124        C  0.10937724  0.61943709  0.53267875    -0.06500
N125        N  0.93558439  0.56846893  0.58877030    -0.46700
N126        N  0.10510008  0.44973898  0.36915564    -0.46900
C127        C  0.13191838  0.60164196  0.57358473     0.42400
N128        N  0.07183788  0.59097475  0.42612237     0.01300
N129        N  0.07053952  0.46199513  0.56413423    -0.25600
N130        N  0.97126007  0.59454285  0.52764693    -0.26100
N131        N  0.07095059  0.42931140  0.53292994     0.00900
H132        H  0.11374554  0.47635917  0.62267592     0.06800
H133        H  0.11223923  0.36792653  0.44750282     0.06900
N134        N  0.07173066  0.55772260  0.39542662    -0.26100
N135        N  0.97108789  0.42689863  0.43141869    -0.25700
N136        N  0.07118000  0.56271128  0.56089251     0.01300
C137        C  0.91419809  0.60688171  0.38321153     0.42700
C138        C  0.93501553  0.45487410  0.59185464    -0.07000
N139        N  0.07038021  0.42618716  0.43167446    -0.25700
H140        H  0.92826880  0.36867554  0.44630664     0.06800
N141        N  0.93736813  0.62112144  0.42064265    -0.47000
H142        H  0.92590285  0.47563361  0.62122609     0.06800
C143        C  0.12842283  0.41416980  0.57626146     0.42500
C144        C  0.93508145  0.62242575  0.53331874    -0.06500
Co145      Co  0.02062364  0.51282218  0.56348842     0.73800
N146        N  0.93781132  0.39933408  0.53771206    -0.46700
C147        C  0.12923203  0.60505237  0.38303715     0.42800
N148        N  0.10671184  0.56636614  0.58907946    -0.44400
Co149      Co  0.02094466  0.42699934  0.48212145     0.73900
C150        C  0.10473078  0.39655599  0.42557652    -0.07000
C151        C  0.93633991  0.56559234  0.36634999    -0.06600
N152        N  0.07192865  0.59324707  0.52763476    -0.26100
N153        N  0.93636738  0.45144754  0.36893825    -0.46800
H154        H  0.11560417  0.54212529  0.33767674     0.06800
C155        C  0.10550228  0.45520782  0.59330210    -0.07000
Cl156      Cl  0.02107857  0.51042351  0.47950099    -0.50000
C157        C  0.91386710  0.41289947  0.57470036     0.42600
H158        H  0.11969530  0.64704859  0.51034462     0.06800
N159        N  0.10482870  0.39966874  0.53911381    -0.46700
C160        C  0.76205470  0.32070109  0.29878071     0.80200
N161        N  0.74397226  0.28190354  0.31645703    -0.78100
C162        C  0.70675125  0.26230574  0.29648895     0.82600
N163        N  0.68658011  0.28222855  0.25962715    -0.78100
C164        C  0.70404860  0.32154165  0.24236351     0.82700
N165        N  0.74179863  0.34053018  0.26186918    -0.79800
C166        C  0.73414418  0.66385725  0.32860548     0.80200
N167        N  0.71588988  0.70331102  0.34461327    -0.78100
C168        C  0.67899652  0.72254046  0.32363397     0.82600
N169        N  0.66024161  0.70170007  0.28633872    -0.78100
C170        C  0.67807844  0.66184689  0.27034743     0.82700
N171        N  0.71574495  0.64362911  0.29104008    -0.79800
C172        C  0.70404791  0.32475858  0.71507186     0.80200
N173        N  0.68592139  0.28557415  0.69840385    -0.78100
C174        C  0.70125594  0.26761622  0.65833585     0.82600
N175        N  0.73556636  0.28914553  0.63524173    -0.78100
C176        C  0.75339083  0.32892006  0.65174497     0.82700
N177        N  0.73750183  0.34638887  0.69165006    -0.79800
C178        C  0.34114410  0.74554773  0.29697592     0.80200
N179        N  0.30391492  0.72559990  0.31626126    -0.78100
C180        C  0.28711953  0.68600642  0.29900510     0.82600
N181        N  0.30699484  0.66662475  0.26165792    -0.78100
C182        C  0.34343641  0.68721798  0.24129028     0.82700
N183        N  0.36065333  0.72648616  0.25922355    -0.79800
C184        C  0.36067404  0.72449704  0.64275027     0.80200
N185        N  0.32288540  0.70441984  0.62435196    -0.78100
C186        C  0.30472890  0.66646958  0.64362164     0.82600
N187        N  0.32340551  0.64955107  0.68280180    -0.78100
C188        C  0.36084034  0.66984352  0.70184823     0.82700
N189        N  0.37951470  0.70723885  0.68166982    -0.79800
C190        C  0.34244651  0.32452540  0.71830605     0.80200
N191        N  0.30440154  0.34449887  0.70036314    -0.78100
C192        C  0.28132983  0.32454123  0.66523893     0.82600
N193        N  0.29746174  0.28480510  0.64713739    -0.78100
C194        C  0.33586228  0.26493574  0.66462785     0.82700
N195        N  0.35864218  0.28519144  0.69983769    -0.79800
C196        C  0.67789695  0.66200754  0.69819656     0.80200
N197        N  0.65654127  0.69906426  0.68015120    -0.78100
C198        C  0.67395374  0.71973742  0.64242196     0.82600
N199        N  0.71304209  0.70325931  0.62311044    -0.78100
C200        C  0.73458523  0.66612963  0.64077405     0.82700
N201        N  0.71715114  0.64604752  0.67890324    -0.79800
C202        C  0.34619018  0.27990031  0.30218130     0.80200
N203        N  0.36675258  0.29910668  0.26528371    -0.78100
C204        C  0.35012146  0.33847947  0.24729453     0.82600
N205        N  0.31239663  0.35845092  0.26598670    -0.78100
C206        C  0.29229492  0.33996375  0.30351007     0.82700
N207        N  0.30913907  0.30057645  0.32133610    -0.79800
C208        C  0.23810826  0.34588425  0.59588805    -0.05800
C209        C  0.24151906  0.34772727  0.64391501     0.00100
C210        C  0.20744867  0.37132048  0.66960334    -0.08500
C211        C  0.17084054  0.39186695  0.64581808    -0.05800
C212        C  0.16752345  0.39008670  0.59780429     0.00100
C213        C  0.20189498  0.36707196  0.57212033    -0.08400
C214        C  0.20116579  0.36517769  0.52001273     0.62000
H215        H  0.26461157  0.32798531  0.57687133     0.12700
H216        H  0.14430766  0.40971048  0.66480013     0.12700
C217        C  0.20898675  0.37480593  0.72170063     0.62200
F218        F  0.24172162  0.34757914  0.50230298    -0.22900
F219        F  0.19535974  0.40861817  0.50215663    -0.20300
F220        F  0.16558011  0.33727630  0.50573860    -0.19900
F221        F  0.24452099  0.40339284  0.73492547    -0.20000
F222        F  0.21544042  0.33197412  0.74073258    -0.20300
F223        F  0.16853164  0.39260509  0.73943840    -0.23000
C224        C  0.21372547  0.62002574  0.56261988    -0.05800
C225        C  0.17640599  0.61585404  0.59274872     0.00100
C226        C  0.18180303  0.62637157  0.63984733    -0.08500
C227        C  0.22485287  0.64183185  0.65520491    -0.05800
C228        C  0.26199505  0.64691814  0.62499603     0.00100
C229        C  0.25698365  0.63500089  0.57808479    -0.08400
C230        C  0.29726574  0.63671035  0.54489009     0.62000
H231        H  0.20866936  0.61134945  0.52677846     0.12700
H232        H  0.22949770  0.65140745  0.69082179     0.12700
C233        C  0.14178565  0.62336398  0.67322024     0.62200
F234        F  0.28635501  0.61714717  0.50292946    -0.22900
F235        F  0.33429600  0.61298984  0.56308734    -0.20300
F236        F  0.30995640  0.68151933  0.53703094    -0.19900
F237        F  0.12820498  0.57835437  0.67796437    -0.20000
F238        F  0.10515865  0.64906843  0.65703942    -0.20300
F239        F  0.15344143  0.63968721  0.71633927    -0.23000
C240        C  0.20479517  0.68686841  0.31746898    -0.05800
C241        C  0.24737428  0.66458252  0.32089294     0.00100
C242        C  0.25175524  0.62411454  0.34695554    -0.08500
C243        C  0.21206163  0.60547771  0.36687094    -0.05800
C244        C  0.16935374  0.62740389  0.36284577     0.00100
C245        C  0.16535076  0.66895542  0.33849394    -0.08400
C246        C  0.11956259  0.69373401  0.33442011     0.62000
H247        H  0.20279509  0.71845159  0.29818557     0.12700
H248        H  0.21407084  0.57381335  0.38603417     0.12700
C249        C  0.29830469  0.60175033  0.35469975     0.62200
F250        F  0.12280686  0.73235714  0.30722536    -0.22900
F251        F  0.10489424  0.70718061  0.37751411    -0.20300
F252        F  0.08702464  0.66502301  0.31507983    -0.19900
F253        F  0.32903000  0.63353874  0.37197574    -0.20000
F254        F  0.31492299  0.58469091  0.31365460    -0.20300
F255        F  0.29570142  0.56618977  0.38583928    -0.23000
C256        C  0.20493247  0.42272144  0.35326311    -0.05800
C257        C  0.16866454  0.39269112  0.36277852     0.00100
C258        C  0.17278826  0.34561042  0.35211682    -0.08500
C259        C  0.21379591  0.33022288  0.33217902    -0.05800
C260        C  0.25029021  0.36007932  0.32299290     0.00100
C261        C  0.24644551  0.40701489  0.33429592    -0.08400
C262        C  0.28653176  0.43981539  0.32881177     0.62000
H263        H  0.20085014  0.45852965  0.36197928     0.12700
H264        H  0.21787574  0.29429408  0.32398969     0.12700
C265        C  0.13499982  0.31111296  0.36199944     0.62200
F266        F  0.27743208  0.48175555  0.34885898    -0.22900
F267        F  0.29527595  0.44706101  0.28278267    -0.20300
F268        F  0.32541312  0.42191337  0.34970158    -0.19900
F269        F  0.09208730  0.32897299  0.35164856    -0.20000
F270        F  0.13660969  0.29899972  0.40781518    -0.20300
F271        F  0.14048116  0.27176704  0.33607146    -0.23000
C272        C  0.83397796  0.63651964  0.56074253    -0.05800
C273        C  0.86655564  0.61992010  0.59225630     0.00100
C274        C  0.85552986  0.61835774  0.63961558    -0.08500
C275        C  0.81197320  0.63378357  0.65358897    -0.05800
C276        C  0.77933797  0.65055141  0.62212065     0.00100
C277        C  0.79030172  0.65178117  0.57466068    -0.08400
C278        C  0.75635577  0.66833465  0.53845578     0.62000
H279        H  0.84293026  0.63721341  0.52469198     0.12700
H280        H  0.80319723  0.63321064  0.68969159     0.12700
C281        C  0.88956055  0.60155226  0.67560732     0.62200
F282        F  0.77120105  0.65835072  0.49442438    -0.22900
F283        F  0.75130243  0.71523761  0.54170488    -0.20300
F284        F  0.71410574  0.64739368  0.54445118    -0.19900
F285        F  0.93101179  0.62432338  0.67104125    -0.20000
F286        F  0.89655708  0.55508226  0.67040499    -0.20300
F287        F  0.87379015  0.60901577  0.71983593    -0.23000
C288        C  0.82772017  0.32348475  0.61252638    -0.05800
C289        C  0.79200143  0.35146439  0.62848912     0.00100
C290        C  0.79536027  0.39970363  0.62439683    -0.08500
C291        C  0.83595213  0.41819292  0.60640850    -0.05800
C292        C  0.87222775  0.39022316  0.59176368     0.00100
C293        C  0.86816061  0.34198901  0.59421321    -0.08400
C294        C  0.90668341  0.31001300  0.57937021     0.62000
H295        H  0.82421770  0.28677896  0.61581857     0.12700
H296        H  0.83971076  0.45493169  0.60372432     0.12700
C297        C  0.75646716  0.43183017  0.63809335     0.62200
F298        F  0.89773952  0.26506033  0.59117036    -0.22900
F299        F  0.94753566  0.32256773  0.60039183    -0.20300
F300        F  0.91173064  0.31181206  0.53222499    -0.19900
F301        F  0.75415605  0.43520338  0.68538309    -0.20000
F302        F  0.71496079  0.41582121  0.62112518    -0.20300
F303        F  0.76301489  0.47540850  0.62078712    -0.23000
C304        C  0.79884930  0.39102307  0.32647681    -0.05800
C305        C  0.80137380  0.34340599  0.32104816     0.00100
C306        C  0.84142332  0.31952754  0.33518005    -0.08500
C307        C  0.87733768  0.34450744  0.35530322    -0.05800
C308        C  0.87482467  0.39209244  0.36034125     0.00100
C309        C  0.83532034  0.41611180  0.34537579    -0.08400
C310        C  0.83132144  0.46768536  0.34977040     0.62000
H311        H  0.76777631  0.40850703  0.31593130     0.12700
H312        H  0.90805844  0.32699991  0.36707643     0.12700
C313        C  0.84712193  0.26840469  0.32792723     0.62200
F314        F  0.78788087  0.48329376  0.33781689    -0.22900
F315        F  0.86275898  0.48816279  0.32088324    -0.20300
F316        F  0.83993774  0.48094372  0.39457786    -0.19900
F317        F  0.83812138  0.25754331  0.28254665    -0.20000
F318        F  0.81728315  0.24487201  0.35621535    -0.20300
F319        F  0.89141303  0.25386275  0.33793380    -0.23000
C320        C  0.81772931  0.67276417  0.32747550    -0.05800
C321        C  0.77947026  0.64939353  0.34485386     0.00100
C322        C  0.78530709  0.61301037  0.37601368    -0.08500
C323        C  0.83024664  0.60050064  0.38861369    -0.05800
C324        C  0.86847608  0.62324434  0.37041161     0.00100
C325        C  0.86262868  0.66002784  0.33972987    -0.08400
C326        C  0.90373906  0.68494351  0.31975727     0.62000
H327        H  0.81208314  0.70058237  0.30360052     0.12700
H328        H  0.83598423  0.57253108  0.41227477     0.12700
C329        C  0.74424114  0.58760780  0.39521756     0.62200
F330        F  0.89045726  0.71961919  0.29023167    -0.22900
F331        F  0.93092248  0.65449117  0.29551023    -0.20300
F332        F  0.92951881  0.70403961  0.35485227    -0.19900
F333        F  0.72125261  0.56562515  0.35991396    -0.20000
F334        F  0.71457069  0.61814108  0.41624963    -0.20300
F335        F  0.75732909  0.55522378  0.42733053    -0.23000
C336        C  0.61423318  0.17748688  0.62273806    -0.05800
C337        C  0.64212827  0.14539613  0.60043410     0.00100
C338        C  0.69029039  0.15330498  0.59777391    -0.08500
C339        C  0.70825940  0.19352599  0.61752747    -0.05800
C340        C  0.67983160  0.22578488  0.63934012     0.00100
C341        C  0.63168662  0.21803702  0.64145220    -0.08400
C342        C  0.59826991  0.25277926  0.66174731     0.62000
H343        H  0.57783726  0.17073116  0.62519340     0.12700
H344        H  0.74493608  0.20017508  0.61606138     0.12700
C345        C  0.72284700  0.11942541  0.57516140     0.62200
F346        F  0.55296669  0.24188898  0.65219855    -0.22900
F347        F  0.60657655  0.29564462  0.64353732    -0.20300
F348        F  0.60293620  0.25415727  0.70897365    -0.19900
F349        F  0.71524290  0.11885023  0.52828742    -0.20000
F350        F  0.71588040  0.07615302  0.59292484    -0.20300
F351        F  0.76854532  0.13078264  0.58249335    -0.23000
C352        C  0.40009690  0.22808867  0.62482582    -0.05800
C353        C  0.35563480  0.22420469  0.64279157     0.00100
C354        C  0.33227407  0.18185608  0.64104273    -0.08500
C355        C  0.35434086  0.14445133  0.62008383    -0.05800
C356        C  0.39896805  0.14836838  0.60234019     0.00100
C357        C  0.42226915  0.19064066  0.60450912    -0.08400
C358        C  0.47070175  0.19567715  0.58643275     0.62000
H359        H  0.41742053  0.26080114  0.62710479     0.12700
H360        H  0.33702499  0.11176701  0.61753520     0.12700
C361        C  0.28491134  0.17607829  0.66207992     0.62200
F362        F  0.48586507  0.24047886  0.58836389    -0.22900
F363        F  0.47307337  0.18127630  0.54132327    -0.20300
F364        F  0.49941539  0.16901416  0.61287778    -0.19900
F365        F  0.25292941  0.20071289  0.63703228    -0.20000
F366        F  0.28521648  0.19167823  0.70696776    -0.20300
F367        F  0.27135060  0.13073195  0.66247209    -0.23000
C368        C  0.36863582  0.23669691  0.37078843    -0.05800
C369        C  0.36474466  0.23788168  0.32281295     0.00100
C370        C  0.37772494  0.19926432  0.29639477    -0.08500
C371        C  0.39701942  0.16159461  0.31916036    -0.05800
C372        C  0.40235589  0.16107442  0.36698445     0.00100
C373        C  0.38718408  0.19871194  0.39357044    -0.08400
C374        C  0.39209956  0.19964973  0.44541158     0.62000
H375        H  0.35772597  0.26632674  0.39032241     0.12700
H376        H  0.40836034  0.13212175  0.29962753     0.12700
C377        C  0.37048376  0.19709957  0.24474775     0.62200
F378        F  0.37995467  0.24164848  0.46382293    -0.22900
F379        F  0.43732783  0.19090320  0.45734677    -0.20300
F380        F  0.36381591  0.16694406  0.46454737    -0.19900
F381        F  0.40169174  0.22533993  0.22305315    -0.20000
F382        F  0.32612703  0.21067214  0.23380538    -0.20300
F383        F  0.37661303  0.15321136  0.22791214    -0.23000
C384        C  0.67753224  0.14151589  0.33089571    -0.05800
C385        C  0.64370224  0.15012177  0.36397540     0.00100
C386        C  0.62939154  0.19518137  0.37369393    -0.08500
C387        C  0.65091761  0.23118726  0.35055474    -0.05800
C388        C  0.68528873  0.22274595  0.31799489     0.00100
C389        C  0.69852088  0.17753550  0.30711407    -0.08400
C390        C  0.73423614  0.16772973  0.27047130     0.62000
H391        H  0.68707803  0.10640560  0.32370888     0.12700
H392        H  0.64127957  0.26626362  0.35780405     0.12700
C393        C  0.59182559  0.20477357  0.40857273     0.62200
F394        F  0.73989596  0.12127835  0.26315293    -0.22900
F395        F  0.77615695  0.18570445  0.28373595    -0.20300
F396        F  0.72080782  0.18745481  0.22942606    -0.19900
F397        F  0.60594868  0.18990021  0.45141356    -0.20000
F398        F  0.55195335  0.18198347  0.39622736    -0.20300
F399        F  0.58167760  0.25092908  0.41149316    -0.23000
C400        C  0.34497930  0.80215231  0.61535380    -0.05800
C401        C  0.37755877  0.76754991  0.62298091     0.00100
C402        C  0.42417664  0.77454998  0.61086274    -0.08500
C403        C  0.43648439  0.81652442  0.59095422    -0.05800
C404        C  0.40378378  0.85110815  0.58331746     0.00100
C405        C  0.35739902  0.84439939  0.59642881    -0.08400
C406        C  0.32161074  0.88217695  0.59278629     0.62000
H407        H  0.30957285  0.79600309  0.62519921     0.12700
H408        H  0.47195626  0.82286845  0.58144377     0.12700
C409        C  0.46050099  0.73785498  0.61828080     0.62200
F410        F  0.28086262  0.87048050  0.61434132    -0.22900
F411        F  0.31167520  0.89079371  0.54724416    -0.20300
F412        F  0.33802631  0.92159793  0.61337241    -0.19900
F413        F  0.44603021  0.69701102  0.59908671    -0.20000
F414        F  0.46795485  0.73184627  0.66478219    -0.20300
F415        F  0.50210362  0.74944141  0.59833289    -0.23000
C416        C  0.62527529  0.83963714  0.63214028    -0.05800
C417        C  0.62334461  0.84452777  0.58431545     0.00100
C418        C  0.63637821  0.80759936  0.55559107    -0.08500
C419        C  0.65065412  0.76661321  0.57627380    -0.05800
C420        C  0.65329638  0.76201855  0.62417291     0.00100
C421        C  0.64086359  0.79924375  0.65283308    -0.08400
C422        C  0.64560912  0.79744099  0.70481694     0.62000
H423        H  0.61510641  0.86832710  0.65339641     0.12700
H424        H  0.66075552  0.73785440  0.55508153     0.12700
C425        C  0.63555993  0.81118951  0.50361202     0.62200
F426        F  0.63872498  0.83986861  0.72482026    -0.22900
F427        F  0.68940362  0.78295303  0.71676112    -0.20300
F428        F  0.61331512  0.76776894  0.72273150    -0.19900
F429        F  0.66846198  0.84221398  0.48977507    -0.20000
F430        F  0.59255625  0.82533322  0.48876980    -0.20300
F431        F  0.64532222  0.76978666  0.48260495    -0.23000
C432        C  0.67422862  0.84715175  0.36041354    -0.05800
C433        C  0.62664344  0.85487821  0.36081206     0.00100
C434        C  0.59607573  0.81906706  0.34890008    -0.08500
C435        C  0.61471828  0.77618016  0.33736786    -0.05800
C436        C  0.66241918  0.76819863  0.33781481     0.00100
C437        C  0.69297280  0.80446843  0.34900354    -0.08400
C438        C  0.74511521  0.79899519  0.34849555     0.62000
H439        H  0.69683459  0.87504326  0.36992174     0.12700
H440        H  0.59204057  0.74822131  0.32833146     0.12700
C441        C  0.54421267  0.82560126  0.34921222     0.62200
F442        F  0.76748983  0.84048257  0.35335143    -0.22900
F443        F  0.75907661  0.77999878  0.30726401    -0.20300
F444        F  0.75888795  0.77135052  0.38448916    -0.19900
F445        F  0.53199035  0.85618991  0.31521256    -0.20000
F446        F  0.53012213  0.84207742  0.39148606    -0.20300
F447        F  0.52097459  0.78511414  0.34097173    -0.23000
C448        C  0.39094135  0.83279199  0.37956531    -0.05800
C449        C  0.39868551  0.86949490  0.34983173     0.00100
C450        C  0.38688499  0.86583180  0.30274692    -0.08500
C451        C  0.36778024  0.82462946  0.28698957    -0.05800
C452        C  0.36030170  0.78775169  0.31669241     0.00100
C453        C  0.37235690  0.79146129  0.36374117    -0.08400
C454        C  0.36757290  0.75160460  0.39677581     0.62000
H455        H  0.40036496  0.83659155  0.41539103     0.12700
H456        H  0.35838837  0.82086459  0.25118528     0.12700
C457        C  0.39323584  0.90521808  0.26939882     0.62200
F458        F  0.38911615  0.71339800  0.37874548    -0.22900
F459        F  0.32155646  0.74219761  0.40413360    -0.20300
F460        F  0.38754684  0.76089915  0.43898829    -0.19900
F461        F  0.43947329  0.91131029  0.26040565    -0.20000
F462        F  0.37514484  0.94501656  0.28774130    -0.20300
F463        F  0.37125609  0.89708516  0.22794642    -0.23000
C464        C  0.67431215  0.31541132  0.16386265    -0.05800
C465        C  0.68220522  0.34303381  0.20242365     0.00100
C466        C  0.66850928  0.38956769  0.20220348    -0.08500
C467        C  0.64666141  0.40672698  0.16291125    -0.05800
C468        C  0.63864382  0.37899999  0.12456716     0.00100
C469        C  0.65342235  0.33293397  0.12420102    -0.08400
C470        C  0.64915692  0.30308003  0.08167175     0.62000
H471        H  0.68542523  0.28004609  0.16485004     0.12700
H472        H  0.63593124  0.44220692  0.16158960     0.12700
C473        C  0.67678750  0.42111856  0.24284624     0.62200
F474        F  0.67236988  0.26201686  0.08674348    -0.22900
F475        F  0.66764669  0.32543250  0.04417627    -0.20300
F476        F  0.60341010  0.29334888  0.07319121    -0.19900
F477        F  0.72323014  0.43074952  0.24609905    -0.20000
F478        F  0.66196821  0.40071710  0.28299256    -0.20300
F479        F  0.65344422  0.46217299  0.23818403    -0.23000
C480        C  0.60615682  0.61789560  0.17059544    -0.05800
C481        C  0.64084811  0.60850876  0.13853850     0.00100
C482        C  0.68746643  0.61734117  0.14950765    -0.08500
C483        C  0.69777237  0.63411334  0.19342605    -0.05800
C484        C  0.66313286  0.64334559  0.22572196     0.00100
C485        C  0.61639835  0.63541413  0.21430012    -0.08400
C486        C  0.57760997  0.64413280  0.24808648     0.62000
H487        H  0.57071604  0.61124937  0.16099199     0.12700
H488        H  0.73328341  0.64082001  0.20271411     0.12700
C489        C  0.72618557  0.61069744  0.11506499     0.62200
F490        F  0.53546811  0.62980021  0.23099981    -0.22900
F491        F  0.57417811  0.69034762  0.25728216    -0.20300
F492        F  0.58608149  0.62068228  0.28842670    -0.19900
F493        F  0.71386425  0.62849708  0.07279616    -0.20000
F494        F  0.73588688  0.56468138  0.11046922    -0.20300
F495        F  0.76611711  0.63257694  0.12901169    -0.23000
C496        C  0.38049089  0.62035425  0.20565771    -0.05800
C497        C  0.36547348  0.66574658  0.20129164     0.00100
C498        C  0.37108856  0.68911790  0.15913987    -0.08500
C499        C  0.39403274  0.66671704  0.12319933    -0.05800
C500        C  0.40959689  0.62167316  0.12786707     0.00100
C501        C  0.40246849  0.59762738  0.16927389    -0.08400
C502        C  0.41895123  0.54870836  0.17517167     0.62000
H503        H  0.37526060  0.60301834  0.23805637     0.12700
H504        H  0.39964592  0.68405753  0.09085480     0.12700
C505        C  0.35137568  0.73661035  0.15145796     0.62200
F506        F  0.41114308  0.53264564  0.21914970    -0.22900
F507        F  0.46572920  0.54610653  0.16662401    -0.20300
F508        F  0.39578937  0.52055996  0.14483012    -0.19900
F509        F  0.37507924  0.76813390  0.17774957    -0.20000
F510        F  0.30530343  0.73726256  0.16346791    -0.20300
F511        F  0.35461152  0.74982365  0.10595128    -0.23000
C512        C  0.43274156  0.38775525  0.16005902    -0.05800
C513        C  0.40308197  0.39317160  0.12241920     0.00100
C514        C  0.35639442  0.37985424  0.12559528    -0.08500
C515        C  0.34054268  0.36235726  0.16741143    -0.05800
C516        C  0.37003020  0.35722529  0.20516817     0.00100
C517        C  0.41686332  0.37006829  0.20190493    -0.08400
C518        C  0.44934182  0.36669464  0.24272603     0.62000
H519        H  0.46834433  0.39812041  0.15652372     0.12700
H520        H  0.30488917  0.35214032  0.17092464     0.12700
C521        C  0.32379730  0.38258562  0.08480703     0.62200
F522        F  0.49199164  0.38552281  0.23328875    -0.22900
F523        F  0.45603444  0.32139126  0.25438838    -0.20300
F524        F  0.43083019  0.38988685  0.27980725    -0.19900
F525        F  0.34375535  0.36223722  0.04681558    -0.20000
F526        F  0.31386414  0.42771272  0.07505270    -0.20300
F527        F  0.28261924  0.36041195  0.09335082    -0.23000
C528        C  0.63467442  0.58632854  0.79370146    -0.05800
C529        C  0.64183364  0.61516530  0.83148653     0.00100
C530        C  0.66043343  0.65926429  0.82555929    -0.08500
C531        C  0.67105529  0.67355662  0.78096964    -0.05800
C532        C  0.66375193  0.64485524  0.74307380     0.00100
C533        C  0.64525394  0.60065587  0.74905109    -0.08400
C534        C  0.63563572  0.56958149  0.70841842     0.62000
H535        H  0.62006929  0.55277596  0.79947066     0.12700
H536        H  0.68557529  0.70716495  0.77532548     0.12700
C537        C  0.66979042  0.69047183  0.86623908     0.62200
F538        F  0.61597510  0.52865741  0.72184652    -0.22900
F539        F  0.67620827  0.55974423  0.68571194    -0.20300
F540        F  0.60558038  0.59110465  0.67852050    -0.19900
F541        F  0.69506986  0.66737238  0.89922039    -0.20000
F542        F  0.62852120  0.70466813  0.88510215    -0.20300
F543        F  0.69452137  0.72883967  0.85358613    -0.23000
C544        C  0.68618547  0.37031546  0.83490404    -0.05800
C545        C  0.64230890  0.38976002  0.83012394     0.00100
C546        C  0.61980682  0.38988373  0.78699428    -0.08500
C547        C  0.64087792  0.36703148  0.75033311    -0.05800
C548        C  0.68408378  0.34644665  0.75547332     0.00100
C549        C  0.70789152  0.34875517  0.79771285    -0.08400
C550        C  0.75530158  0.32756055  0.80340409     0.62000
H551        H  0.70290122  0.37150746  0.86818251     0.12700
H552        H  0.62427023  0.36582348  0.71699186     0.12700
C553        C  0.57539167  0.41631506  0.77904589     0.62200
F554        F  0.77193126  0.33263675  0.84769855    -0.22900
F555        F  0.78607458  0.34826126  0.77387964    -0.20300
F556        F  0.75319484  0.28135079  0.79347554    -0.19900
F557        F  0.58174008  0.46150664  0.79160130    -0.20000
F558        F  0.54007033  0.39794274  0.80466405    -0.20300
F559        F  0.56200130  0.41533659  0.73339767    -0.23000
C560        C  0.39801953  0.35172906  0.83257877    -0.05800
C561        C  0.41151922  0.39705757  0.82520342     0.00100
C562        C  0.40458100  0.41782252  0.78192194    -0.08500
C563        C  0.38205836  0.39252330  0.74764768    -0.05800
C564        C  0.36755192  0.34749692  0.75540335     0.00100
C565        C  0.37566203  0.32638817  0.79832414    -0.08400
C566        C  0.35886182  0.27836572  0.80876055     0.62000
H567        H  0.40423795  0.33667050  0.86598614     0.12700
H568        H  0.37554346  0.40769828  0.71434386     0.12700
C569        C  0.42213869  0.46557979  0.77138089     0.62200
F570        F  0.36796189  0.26592368  0.85373670    -0.22900
F571        F  0.38054189  0.24712305  0.78045448    -0.20300
F572        F  0.31177012  0.27605452  0.80190605    -0.19900
F573        F  0.46829143  0.46876053  0.78275899    -0.20000
F574        F  0.39755610  0.49764353  0.79612517    -0.20300
F575        F  0.41761904  0.47610590  0.72524874    -0.23000
C576        C  0.37667877  0.63407856  0.82578494    -0.05800
C577        C  0.42368408  0.62332384  0.82623300     0.00100
C578        C  0.44968942  0.62579347  0.78522300    -0.08500
C579        C  0.42764636  0.64132143  0.74518344    -0.05800
C580        C  0.38066813  0.65243025  0.74486776     0.00100
C581        C  0.35444060  0.64865385  0.78560796    -0.08400
C582        C  0.30349384  0.66045479  0.78702794     0.62000
H583        H  0.35738819  0.63070500  0.85739496     0.12700
H584        H  0.44681189  0.64440438  0.71347097     0.12700
C585        C  0.49960794  0.61023625  0.78298970     0.62200
F586        F  0.28661150  0.66068905  0.83145406    -0.22900
F587        F  0.27889245  0.62840090  0.76220918    -0.20300
F588        F  0.29614685  0.70340374  0.76857332    -0.19900
F589        F  0.50370898  0.56652558  0.80061579    -0.20000
F590        F  0.52712616  0.63969307  0.80791332    -0.20300
F591        F  0.51585867  0.60944670  0.73833786    -0.23000
loop_ 
_geom_bond_atom_site_label_1 
_geom_bond_atom_site_label_2 
_geom_bond_distance 
_geom_bond_site_symmetry_2 
_ccdc_geom_bond_type 
C1           N19   1.346       .  A
C1           C38   1.457       .  S
C1          C577   1.468       .  S
N2           N19   1.321       .  A
N2           N24   1.318       .  A
N2          Co39   2.069       .  S
C3           N28   1.337       .  A
C3           C41   1.455       .  S
C3           H48   1.080       .  S
H4           C45   1.081       .  S
C5           N29   1.335       .  A
C5            C9   1.451       .  S
C5           H34   1.081       .  S
Co6          N24   2.078       .  S
Co6          N14   2.068       .  S
Co6          N46   2.077   1_556  S
Co6          N22   2.075   1_556  S
Co6         Cl50   2.448       .  S
N7           C45   1.337       .  A
N7           N14   1.319       .  A
N7           Co8   2.072       .  S
Co8          N11   2.072       .  S
Co8          N28   2.071   1_556  S
Co8          N15   2.074   1_556  S
Co8         Cl50   2.444       .  S
C9           N47   1.346       .  A
C9          C545   1.461       .  S
N10          N17   1.318       .  A
N10          N40   1.321       .  A
N10         Co43   2.070       .  S
N11          N29   1.319       .  A
N11          N47   1.323       .  A
N12          C41   1.348       .  A
N12          N22   1.321       .  A
H13          C38   1.080       .  S
N14          N35   1.321       .  A
N15          N33   1.319       .  A
N15          N20   1.321       .  A
C16          N20   1.346       .  A
C16          C44   1.453       .  S
C16         C468   1.460       .  S
N17          C32   1.338       .  A
N17         Co39   2.072       .  S
C18          N46   1.339       .  A
C18          C21   1.454       .  S
C18          H52   1.081       .  S
C21          N42   1.346       .  A
C21         C500   1.465       .  S
N22          N28   1.319       .  A
N23          C49   1.335       .  A
N23          N25   1.318       .  A
N23         Co39   2.066   1_554  S
N24          C38   1.340       .  A
N25          N53   1.324       .  A
N25         Co43   2.079   1_554  S
H26          C49   1.080       .  S
H27          C44   1.081       .  S
N29         Co43   2.069       .  S
N30          N42   1.323       .  A
N30          N46   1.320       .  A
N30         Co39   2.077   1_554  S
C31          N35   1.344       .  A
C31          C45   1.453       .  S
C31         C529   1.458       .  S
C32          C51   1.456       .  S
C32          H36   1.080       .  S
N33          C44   1.336       .  A
N33         Co43   2.066   1_554  S
C37          N53   1.349       .  A
C37          C49   1.452       .  S
C37         C513   1.465       .  S
Co39        Cl50   2.444       .  S
N40          C51   1.346       .  A
C41         C481   1.466       .  S
Co43        Cl50   2.444       .  S
C51         C561   1.463       .  S
C54          N72   1.347       .  A
C54          C91   1.458       .  S
C54         C404   1.471       .  S
N55          N72   1.323       .  A
N55          N77   1.319       .  A
N55         Co92   2.084   1_565  S
C56          N81   1.338       .  A
C56          C94   1.457       .  S
C56         H101   1.081       .  S
H57          C98   1.077       .  S
C58          N82   1.333       .  A
C58          C62   1.452       .  S
C58          H87   1.079       .  S
Co59         N77   2.075   1_545  S
Co59         N67   2.081   1_545  S
Co59         N99   2.075       .  S
Co59         N75   2.078       .  S
Co59       Cl103   2.449       .  S
N60          C98   1.333       .  A
N60          N67   1.317       .  A
N60         Co61   2.056   1_565  S
Co61         N64   2.083   1_545  S
Co61         N81   2.081       .  S
Co61         N68   2.070       .  S
Co61       Cl103   2.444       .  S
C62         N100   1.350       .  A
C62         C433   1.473       .  S
N63          N70   1.319       .  A
N63          N93   1.326       .  A
N63         Co96   2.083   1_565  S
N64          N82   1.319       .  A
N64         N100   1.326       .  A
N65          C94   1.347       .  A
N65          N75   1.323       .  A
H66          C91   1.080       .  S
N67          N88   1.323       .  A
N68          N86   1.320       .  A
N68          N73   1.321       .  A
C69          N73   1.344       .  A
C69          C97   1.453       .  S
C69         C385   1.456       .  S
N70          C85   1.336       .  A
N70         Co92   2.073   1_565  S
C71          N99   1.337       .  A
C71          C74   1.451       .  S
C71         H105   1.080       .  S
C74          N95   1.350       .  A
C74         C356   1.469       .  S
N75          N81   1.321       .  A
N76         C102   1.340       .  A
N76          N78   1.319       .  A
N76         Co92   2.086       .  S
N77          C91   1.339       .  A
N78         N106   1.323       .  A
N78         Co96   2.077       .  S
H79         C102   1.081       .  S
H80          C97   1.081       .  S
N82         Co96   2.067   1_565  S
N83          N95   1.325       .  A
N83          N99   1.320       .  A
N83         Co92   2.085       .  S
C84          N88   1.351       .  A
C84          C98   1.452       .  S
C84         C449   1.467       .  S
C85         C104   1.453       .  S
C85          H89   1.081       .  S
N86          C97   1.339       .  A
N86         Co96   2.071       .  S
C90         N106   1.347       .  A
C90         C102   1.466       .  S
C90         C337   1.485       .  S
Co92       Cl103   2.448       .  S
N93         C104   1.350       .  A
C94         C372   1.470       .  S
Co96       Cl103   2.450       .  S
C104        C417   1.474       .  S
C107        N125   1.347       .  A
C107        C144   1.461       .  S
C107        C273   1.478       .  S
N108        N125   1.322       .  A
N108        N130   1.319       .  A
N108       Co145   2.073   1_655  S
C109        N134   1.338       .  A
C109        C147   1.452       .  S
C109        H154   1.081       .  S
H110        C151   1.080       .  S
C111        N135   1.334       .  A
C111        C115   1.452       .  S
C111        H140   1.081       .  S
Co112       N130   2.083   1_455  S
Co112       N120   2.071   1_455  S
Co112       N152   2.073       .  S
Co112       N128   2.080       .  S
Co112      Cl156   2.446       .  S
N113        C151   1.337       .  A
N113        N120   1.319       .  A
N113       Co114   2.076   1_655  S
Co114       N117   2.080   1_455  S
Co114       N134   2.072       .  S
Co114       N121   2.078       .  S
Co114      Cl156   2.446       .  S
C115        N153   1.348       .  A
C115        C308   1.466       .  S
N116        N123   1.318       .  A
N116        N146   1.319       .  A
N116       Co149   2.061   1_655  S
N117        N135   1.319       .  A
N117        N153   1.324       .  A
N118        C147   1.347       .  A
N118        N128   1.323       .  A
H119        C144   1.081       .  S
N120        N141   1.322       .  A
N121        N139   1.317       .  A
N121        N126   1.323       .  A
C122        N126   1.349       .  A
C122        C150   1.450       .  S
C122        C257   1.465       .  S
N123        C138   1.340       .  A
N123       Co145   2.079   1_655  S
C124        N152   1.339       .  A
C124        C127   1.455       .  S
C124        H158   1.081       .  S
C127        N148   1.345       .  A
C127        C225   1.467       .  S
N128        N134   1.320       .  A
N129        C155   1.337       .  A
N129        N131   1.318       .  A
N129       Co145   2.075       .  S
N130        C144   1.339       .  A
N131        N159   1.323       .  A
N131       Co149   2.072       .  S
H132        C155   1.081       .  S
H133        C150   1.076       .  S
N135       Co149   2.065   1_655  S
N136        N148   1.321       .  A
N136        N152   1.319       .  A
N136       Co145   2.073       .  S
C137        N141   1.345       .  A
C137        C151   1.453       .  S
C137        C324   1.458       .  S
C138        C157   1.461       .  S
C138        H142   1.081       .  S
N139        C150   1.332       .  A
N139       Co149   2.057       .  S
C143        N159   1.347       .  A
C143        C155   1.459       .  S
C143        C212   1.475       .  S
Co145      Cl156   2.447       .  S
N146        C157   1.343       .  A
C147        C244   1.462       .  S
Co149      Cl156   2.442       .  S
C157        C292   1.468       .  S
C160        N161   1.354       .  A
C160        N165   1.355       .  A
C160        C305   1.471       .  S
N161        C162   1.354       .  A
C162        N163   1.354       .  A
C162        C388   1.458       .  S
N163        C164   1.356       .  A
C164        N165   1.353       .  A
C164        C465   1.466       .  S
C166        N167   1.352       .  A
C166        N171   1.352       .  A
C166        C321   1.460       .  S
N167        C168   1.354       .  A
C168        N169   1.358       .  A
C168        C436   1.478       .  S
N169        C170   1.357       .  A
C170        N171   1.356       .  A
C170        C484   1.472       .  S
C172        N173   1.351       .  A
C172        N177   1.348       .  A
C172        C548   1.457       .  S
N173        C174   1.355       .  A
C174        N175   1.360       .  A
C174        C340   1.479       .  S
N175        C176   1.361       .  A
C176        N177   1.351       .  A
C176        C289   1.469       .  S
C178        N179   1.353       .  A
C178        N183   1.357       .  A
C178        C452   1.470       .  S
N179        C180   1.353       .  A
C180        N181   1.355       .  A
C180        C241   1.462       .  S
N181        C182   1.357       .  A
C182        N183   1.357       .  A
C182        C497   1.470       .  S
C184        N185   1.354       .  A
C184        N189   1.355       .  A
C184        C401   1.471       .  S
N185        C186   1.353       .  A
C186        N187   1.356       .  A
C186        C228   1.469       .  S
N187        C188   1.356       .  A
C188        N189   1.357       .  A
C188        C580   1.469       .  S
C190        N191   1.353       .  A
C190        N195   1.353       .  A
C190        C564   1.465       .  S
N191        C192   1.353       .  A
C192        N193   1.359       .  A
C192        C209   1.476       .  S
N193        C194   1.355       .  A
C194        N195   1.355       .  A
C194        C353   1.466       .  S
C196        N197   1.354       .  A
C196        N201   1.354       .  A
C196        C532   1.461       .  S
N197        C198   1.355       .  A
C198        N199   1.356       .  A
C198        C420   1.473       .  S
N199        C200   1.354       .  A
C200        N201   1.357       .  A
C200        C276   1.481       .  S
C202        N203   1.354       .  A
C202        N207   1.354       .  A
C202        C369   1.470       .  S
N203        C204   1.354       .  A
C204        N205   1.356       .  A
C204        C516   1.465       .  S
N205        C206   1.354       .  A
C206        N207   1.355       .  A
C206        C260   1.468       .  S
C208        H215   1.083       .  S
C208        C209   1.403       .  A
C208        C213   1.402       .  A
C209        C210   1.419       .  A
C210        C211   1.403       .  A
C210        C217   1.521       .  S
C211        H216   1.082       .  S
C211        C212   1.402       .  A
C212        C213   1.417       .  A
C213        C214   1.519       .  S
C214        F218   1.385       .  S
C214        F219   1.384       .  S
C214        F220   1.381       .  S
C217        F221   1.383       .  S
C217        F222   1.383       .  S
C217        F223   1.385       .  S
C224        H231   1.084       .  S
C224        C225   1.402       .  A
C224        C229   1.404       .  A
C225        C226   1.414       .  A
C226        C227   1.402       .  A
C226        C233   1.520       .  S
C227        H232   1.082       .  S
C227        C228   1.402       .  A
C228        C229   1.417       .  A
C229        C230   1.520       .  S
C230        F234   1.385       .  S
C230        F235   1.384       .  S
C230        F236   1.382       .  S
C233        F237   1.382       .  S
C233        F238   1.384       .  S
C233        F239   1.384       .  S
C240        H247   1.084       .  S
C240        C241   1.400       .  A
C240        C245   1.403       .  A
C241        C242   1.413       .  A
C242        C243   1.403       .  A
C242        C249   1.517       .  S
C243        H248   1.084       .  S
C243        C244   1.400       .  A
C244        C245   1.413       .  A
C245        C246   1.518       .  S
C246        F250   1.384       .  S
C246        F251   1.383       .  S
C246        F252   1.383       .  S
C249        F253   1.383       .  S
C249        F254   1.382       .  S
C249        F255   1.384       .  S
C256        H263   1.084       .  S
C256        C257   1.401       .  A
C256        C261   1.404       .  A
C257        C258   1.416       .  A
C258        C259   1.399       .  A
C258        C265   1.520       .  S
C259        H264   1.084       .  S
C259        C260   1.401       .  A
C260        C261   1.416       .  A
C261        C262   1.519       .  S
C262        F266   1.383       .  S
C262        F267   1.382       .  S
C262        F268   1.384       .  S
C265        F269   1.383       .  S
C265        F270   1.382       .  S
C265        F271   1.385       .  S
C272        H279   1.082       .  S
C272        C273   1.403       .  A
C272        C277   1.404       .  A
C273        C274   1.418       .  A
C274        C275   1.403       .  A
C274        C281   1.521       .  S
C275        H280   1.083       .  S
C275        C276   1.405       .  A
C276        C277   1.420       .  A
C277        C278   1.521       .  S
C278        F282   1.384       .  S
C278        F283   1.383       .  S
C278        F284   1.384       .  S
C281        F285   1.383       .  S
C281        F286   1.382       .  S
C281        F287   1.385       .  S
C288        H295   1.083       .  S
C288        C289   1.400       .  A
C288        C293   1.401       .  A
C289        C290   1.420       .  A
C290        C291   1.401       .  A
C290        C297   1.522       .  S
C291        H296   1.083       .  S
C291        C292   1.400       .  A
C292        C293   1.418       .  A
C293        C294   1.520       .  S
C294        F298   1.385       .  S
C294        F299   1.384       .  S
C294        F300   1.382       .  S
C297        F301   1.382       .  S
C297        F302   1.384       .  S
C297        F303   1.385       .  S
C304        H311   1.081       .  S
C304        C305   1.403       .  A
C304        C309   1.401       .  A
C305        C306   1.416       .  A
C306        C307   1.401       .  A
C306        C313   1.519       .  S
C307        H312   1.083       .  S
C307        C308   1.401       .  A
C308        C309   1.413       .  A
C309        C310   1.518       .  S
C310        F314   1.385       .  S
C310        F315   1.381       .  S
C310        F316   1.383       .  S
C313        F317   1.383       .  S
C313        F318   1.382       .  S
C313        F319   1.385       .  S
C320        H327   1.083       .  S
C320        C321   1.402       .  A
C320        C325   1.401       .  A
C321        C322   1.410       .  A
C322        C323   1.403       .  A
C322        C329   1.515       .  S
C323        H328   1.083       .  S
C323        C324   1.401       .  A
C324        C325   1.410       .  A
C325        C326   1.517       .  S
C326        F330   1.385       .  S
C326        F331   1.383       .  S
C326        F332   1.383       .  S
C329        F333   1.383       .  S
C329        F334   1.383       .  S
C329        F335   1.385       .  S
C336        H343   1.078       .  S
C336        C337   1.399       .  A
C336        C341   1.400       .  A
C337        C338   1.420       .  A
C338        C339   1.409       .  A
C338        C345   1.519       .  S
C339        H344   1.084       .  S
C339        C340   1.405       .  A
C340        C341   1.418       .  A
C341        C342   1.524       .  S
C342        F346   1.382       .  S
C342        F347   1.384       .  S
C342        F348   1.382       .  S
C345        F349   1.382       .  S
C345        F350   1.384       .  S
C345        F351   1.384       .  S
C352        H359   1.084       .  S
C352        C353   1.399       .  A
C352        C357   1.401       .  A
C353        C354   1.414       .  A
C354        C355   1.406       .  A
C354        C361   1.517       .  S
C355        H360   1.083       .  S
C355        C356   1.401       .  A
C356        C357   1.412       .  A
C357        C358   1.510       .  S
C358        F362   1.384       .  S
C358        F363   1.381       .  S
C358        F364   1.376       .  S
C361        F365   1.382       .  S
C361        F366   1.384       .  S
C361        F367   1.384       .  S
C368        H375   1.083       .  S
C368        C369   1.402       .  A
C368        C373   1.401       .  A
C369        C370   1.417       .  A
C370        C371   1.402       .  A
C370        C377   1.520       .  S
C371        H376   1.083       .  S
C371        C372   1.401       .  A
C372        C373   1.415       .  A
C373        C374   1.516       .  S
C374        F378   1.385       .  S
C374        F379   1.381       .  S
C374        F380   1.381       .  S
C377        F381   1.382       .  S
C377        F382   1.384       .  S
C377        F383   1.385       .  S
C384        H391   1.084       .  S
C384        C385   1.400       .  A
C384        C389   1.403       .  A
C385        C386   1.410       .  A
C386        C387   1.400       .  A
C386        C393   1.518       .  S
C387        H392   1.084       .  S
C387        C388   1.400       .  A
C388        C389   1.412       .  A
C389        C390   1.517       .  S
C390        F394   1.385       .  S
C390        F395   1.381       .  S
C390        F396   1.383       .  S
C393        F397   1.383       .  S
C393        F398   1.383       .  S
C393        F399   1.384       .  S
C400        H407   1.083       .  S
C400        C401   1.402       .  A
C400        C405   1.402       .  A
C401        C402   1.415       .  A
C402        C403   1.406       .  A
C402        C409   1.519       .  S
C403        H408   1.084       .  S
C403        C404   1.404       .  A
C404        C405   1.415       .  A
C405        C406   1.519       .  S
C406        F410   1.385       .  S
C406        F411   1.380       .  S
C406        F412   1.384       .  S
C409        F413   1.384       .  S
C409        F414   1.382       .  S
C409        F415   1.385       .  S
C416        H423   1.083       .  S
C416        C417   1.401       .  A
C416        C421   1.401       .  A
C417        C418   1.417       .  A
C418        C419   1.404       .  A
C418        C425   1.518       .  S
C419        H424   1.083       .  S
C419        C420   1.404       .  A
C420        C421   1.418       .  A
C421        C422   1.521       .  S
C422        F426   1.385       .  S
C422        F427   1.384       .  S
C422        F428   1.383       .  S
C425        F429   1.380       .  S
C425        F430   1.383       .  S
C425        F431   1.385       .  S
C432        H439   1.083       .  S
C432        C433   1.400       .  A
C432        C437   1.401       .  A
C433        C434   1.416       .  A
C434        C435   1.406       .  A
C434        C441   1.518       .  S
C435        H440   1.083       .  S
C435        C436   1.404       .  A
C436        C437   1.421       .  A
C437        C438   1.522       .  S
C438        F442   1.384       .  S
C438        F443   1.384       .  S
C438        F444   1.383       .  S
C441        F445   1.381       .  S
C441        F446   1.384       .  S
C441        F447   1.384       .  S
C448        H455   1.084       .  S
C448        C449   1.399       .  A
C448        C453   1.402       .  A
C449        C450   1.417       .  A
C450        C451   1.404       .  A
C450        C457   1.520       .  S
C451        H456   1.083       .  S
C451        C452   1.402       .  A
C452        C453   1.417       .  A
C453        C454   1.520       .  S
C454        F458   1.383       .  S
C454        F459   1.382       .  S
C454        F460   1.385       .  S
C457        F461   1.381       .  S
C457        F462   1.383       .  S
C457        F463   1.385       .  S
C464        H471   1.084       .  S
C464        C465   1.401       .  A
C464        C469   1.401       .  A
C465        C466   1.418       .  A
C466        C467   1.401       .  A
C466        C473   1.519       .  S
C467        H472   1.084       .  S
C467        C468   1.398       .  A
C468        C469   1.414       .  A
C469        C470   1.519       .  S
C470        F474   1.384       .  S
C470        F475   1.384       .  S
C470        F476   1.381       .  S
C473        F477   1.381       .  S
C473        F478   1.384       .  S
C473        F479   1.385       .  S
C480        H487   1.084       .  S
C480        C481   1.402       .  A
C480        C485   1.403       .  A
C481        C482   1.414       .  A
C482        C483   1.401       .  A
C482        C489   1.521       .  S
C483        H488   1.084       .  S
C483        C484   1.404       .  A
C484        C485   1.416       .  A
C485        C486   1.518       .  S
C486        F490   1.385       .  S
C486        F491   1.381       .  S
C486        F492   1.383       .  S
C489        F493   1.384       .  S
C489        F494   1.381       .  S
C489        F495   1.385       .  S
C496        H503   1.083       .  S
C496        C497   1.403       .  A
C496        C501   1.404       .  A
C497        C498   1.416       .  A
C498        C499   1.403       .  A
C498        C505   1.519       .  S
C499        H504   1.084       .  S
C499        C500   1.399       .  A
C500        C501   1.413       .  A
C501        C502   1.518       .  S
C502        F506   1.384       .  S
C502        F507   1.384       .  S
C502        F508   1.381       .  S
C505        F509   1.381       .  S
C505        F510   1.384       .  S
C505        F511   1.385       .  S
C512        H519   1.083       .  S
C512        C513   1.402       .  A
C512        C517   1.404       .  A
C513        C514   1.415       .  A
C514        C515   1.401       .  A
C514        C521   1.519       .  S
C515        H520   1.083       .  S
C515        C516   1.400       .  A
C516        C517   1.415       .  A
C517        C518   1.519       .  S
C518        F522   1.385       .  S
C518        F523   1.382       .  S
C518        F524   1.384       .  S
C521        F525   1.383       .  S
C521        F526   1.381       .  S
C521        F527   1.385       .  S
C528        H535   1.083       .  S
C528        C529   1.401       .  A
C528        C533   1.402       .  A
C529        C530   1.410       .  A
C530        C531   1.400       .  A
C530        C537   1.519       .  S
C531        H536   1.083       .  S
C531        C532   1.401       .  A
C532        C533   1.412       .  A
C533        C534   1.517       .  S
C534        F538   1.385       .  S
C534        F539   1.382       .  S
C534        F540   1.383       .  S
C537        F541   1.384       .  S
C537        F542   1.382       .  S
C537        F543   1.384       .  S
C544        H551   1.083       .  S
C544        C545   1.401       .  A
C544        C549   1.403       .  A
C545        C546   1.415       .  A
C546        C547   1.400       .  A
C546        C553   1.520       .  S
C547        H552   1.084       .  S
C547        C548   1.399       .  A
C548        C549   1.411       .  A
C549        C550   1.518       .  S
C550        F554   1.384       .  S
C550        F555   1.383       .  S
C550        F556   1.383       .  S
C553        F557   1.383       .  S
C553        F558   1.380       .  S
C553        F559   1.385       .  S
C560        H567   1.083       .  S
C560        C561   1.400       .  A
C560        C565   1.401       .  A
C561        C562   1.414       .  A
C562        C563   1.403       .  A
C562        C569   1.520       .  S
C563        H568   1.084       .  S
C563        C564   1.402       .  A
C564        C565   1.414       .  A
C565        C566   1.519       .  S
C566        F570   1.385       .  S
C566        F571   1.382       .  S
C566        F572   1.383       .  S
C569        F573   1.383       .  S
C569        F574   1.381       .  S
C569        F575   1.385       .  S
C576        H583   1.084       .  S
C576        C577   1.400       .  A
C576        C581   1.402       .  A
C577        C578   1.417       .  A
C578        C579   1.405       .  A
C578        C585   1.520       .  S
C579        H584   1.083       .  S
C579        C580   1.402       .  A
C580        C581   1.416       .  A
C581        C582   1.519       .  S
C582        F586   1.385       .  S
C582        F587   1.382       .  S
C582        F588   1.383       .  S
C585        F589   1.384       .  S
C585        F590   1.380       .  S
C585        F591   1.385       .  S
