geometry optimzed in LAMMPS
_audit_creation_date              2020-12-01 
_audit_creation_method            'lammps2cif' 
_symmetry_space_group_name_H-M    'P1' 
_symmetry_Int_Tables_number       1 
_symmetry_cell_setting            triclinic 
loop_ 
_symmetry_equiv_pos_as_xyz 
  x,y,z 
_cell_length_a                    35.52104378 
_cell_length_b                    40.016182848291 
_cell_length_c                    30.989554849808275 
_cell_angle_alpha                 89.51640724260614 
_cell_angle_beta                  104.09174553459633 
_cell_angle_gamma                 90.36139038056626 
loop_ 
_atom_site_label 
_atom_site_type_symbol 
_atom_site_fract_x 
_atom_site_fract_y 
_atom_site_fract_z 
_atom_site_charge 
In1        In  0.17646026  0.46330831  0.77094525     1.36900
C2          C  0.21629355  0.47077671  0.70958577     0.79100
O3          O  0.22976046  0.44302396  0.81716848    -0.59300
O4          O  0.18033485  0.41142745  0.80076708    -0.50200
C5          C  0.15657496  0.00411999  0.82905536     0.71800
O6          O  0.18521132  0.00979462  0.81245255    -0.45100
C7          C  0.11215526  0.46490996  0.70737343     0.76500
O8          O  0.21898943  0.49193123  0.74037820    -0.56900
O9          O  0.12361612  0.43836951  0.72908945    -0.47000
O10         O  0.19550065  0.44562420  0.71230908    -0.53400
C11         C  0.21534500  0.41477087  0.82197025     0.86700
O12         O  0.13882619  0.47715019  0.81658892    -0.55300
O13         O  0.13235546  0.49056741  0.72064835    -0.58600
In14       In  0.32329267  0.40470349  0.52807017     1.36900
C15         C  0.29317438  0.44877697  0.57309497     0.79100
O16         O  0.28237191  0.37516488  0.55642165    -0.59300
O17         O  0.34207152  0.36257254  0.57837708    -0.50200
C18         C  0.29334819  0.37003109  0.45473354     0.71800
O19         O  0.27918256  0.39752244  0.46293608    -0.45100
C20         C  0.38713758  0.43592618  0.51655618     0.76500
O21         O  0.27775973  0.44251391  0.53261134    -0.56900
O22         O  0.38819641  0.41157446  0.54314041    -0.47000
O23         O  0.32602217  0.43566146  0.58806517    -0.53400
C24         C  0.30752603  0.35698452  0.58117975     0.86700
O25         O  0.32478878  0.36226641  0.48188835    -0.55300
O26         O  0.35327249  0.44375089  0.49513365    -0.58600
In27       In  0.23680492  0.46893545  0.25212824     1.36900
C28         C  0.19781511  0.46115618  0.31493295     0.79100
O29         O  0.28315187  0.44499894  0.30319050    -0.59300
O30         O  0.28714889  0.49755446  0.29277071    -0.50200
C31         C  0.25914782  0.42626041  0.19735270     0.71800
O32         O  0.22809390  0.42236054  0.21002954    -0.45100
C33         C  0.20014588  0.51665391  0.19670350     0.76500
O34         O  0.19631734  0.43918612  0.28539344    -0.56900
O35         O  0.23465492  0.01982093  0.21937022    -0.47000
O36         O  0.21631144  0.48718999  0.30979700    -0.53400
C37         C  0.30114689  0.47196653  0.31517699     0.86700
O38         O  0.27824830  0.45203181  0.21245336    -0.55300
O39         O  0.18474326  0.48902386  0.20256255    -0.58600
In40       In  0.09202896  0.03683444  0.49061777     1.36900
C41         C  0.12277903  0.99020528  0.44976641     0.79100
O42         O  0.06129667  0.99943308  0.52484350    -0.59300
O43         O  0.02699613  0.03119158  0.47572487    -0.50200
C44         C  0.11993541  0.07053058  0.56480164     0.71800
O45         O  0.13420597  0.04308067  0.55671868    -0.45100
C46         C  0.10944308  0.08462860  0.43781513     0.76500
O47         O  0.13821289  0.99893081  0.48929182    -0.56900
O48         O  0.07454574  0.07693415  0.43688418    -0.47000
O49         O  0.08985607  0.00278181  0.43346168    -0.53400
C50         C  0.02760996  0.00758596  0.50336232     0.86700
O51         O  0.08939278  0.07903812  0.53658832    -0.55300
O52         O  0.13414595  0.06819551  0.46580412    -0.58600
C53         C  0.49006511  0.47046290  0.54648860     0.03800
C54         C  0.49166833  0.49018783  0.50869026     0.03800
C55         C  0.45846169  0.49181893  0.47340268    -0.16700
C56         C  0.42450444  0.47392632  0.47438700     0.03800
C57         C  0.42283439  0.45425812  0.51211634     0.03800
C58         C  0.45588268  0.45287494  0.54757583    -0.16700
H59         H  0.45478049  0.43858961  0.57713755     0.05800
H60         H  0.45948425  0.00598497  0.44372007     0.05800
In61       In  0.23697531  0.21396154  0.74794319     1.36900
C62         C  0.19528492  0.21873210  0.80776087     0.79100
O63         O  0.18382562  0.19344357  0.70092977    -0.59300
O64         O  0.23464852  0.16385868  0.71514012    -0.50200
C65         C  0.25770899  0.25799648  0.69320417     0.71800
O66         O  0.23167317  0.26386402  0.71360702    -0.45100
C67         C  0.30210265  0.21342504  0.81065952     0.76500
O68         O  0.19057129  0.23890608  0.77521713    -0.56900
O69         O  0.28864439  0.18735972  0.78935570    -0.47000
O70         O  0.21969235  0.19600681  0.80813851    -0.53400
C71         C  0.19947386  0.16638001  0.69435669     0.86700
O72         O  0.27195557  0.22908187  0.69975837    -0.55300
O73         O  0.28322096  0.23975926  0.79771614    -0.58600
In74       In  0.09028122  0.14876023  0.99348832     1.36900
C75         C  0.11672414  0.19227681  0.94331568     0.79100
O76         O  0.13304111  0.11855902  0.96945375    -0.59300
O77         O  0.07350229  0.10619677  0.94447090    -0.50200
C78         C  0.12020741  0.11497240  0.06800039     0.71800
O79         O  0.13482051  0.14240739  0.05911154    -0.45100
C80         C  0.02604498  0.17830365  0.00527662     0.76500
O81         O  0.13276416  0.18853347  0.98436099    -0.56900
O82         O  0.02523870  0.15318543  0.98047713    -0.47000
O83         O  0.08492236  0.17689871  0.93019969    -0.53400
C84         C  0.10850174  0.10016594  0.94412794     0.86700
O85         O  0.08858781  0.10736605  0.04107704    -0.55300
O86         O  0.05988831  0.18775239  0.02489353    -0.58600
In87       In  0.17785263  0.22639705  0.26759223     1.36900
C88         C  0.21733032  0.21833231  0.20600777     0.79100
O89         O  0.13164180  0.19876714  0.22067243    -0.59300
O90         O  0.12613826  0.25167409  0.22340771    -0.50200
C91         C  0.15811302  0.18238996  0.32295128     0.71800
O92         O  0.18803288  0.17890259  0.30813273    -0.45100
C93         C  0.21426911  0.27453558  0.32242076     0.76500
O94         O  0.22197715  0.19907027  0.23945207    -0.56900
O95         O  0.17879317  0.27615949  0.30239854    -0.47000
O96         O  0.19447511  0.24230779  0.20575657    -0.53400
C97         C  0.11261929  0.22447576  0.20502012     0.86700
O98         O  0.13934722  0.20881051  0.31047938    -0.55300
O99         O  0.23089248  0.24870157  0.31343690    -0.58600
In100      In  0.32506999  0.28540693  0.02584948     1.36900
C101        C  0.29609174  0.24030026  0.07139333     0.79100
O102        O  0.35311939  0.24630829  0.99167821    -0.59300
O103        O  0.38947404  0.27724739  0.03991070    -0.50200
C104        C  0.29719397  0.31867463  0.95068795     0.71800
O105        O  0.28224470  0.29155017  0.95986894    -0.45100
C106        C  0.30817319  0.33341947  0.07811357     0.76500
O107        O  0.27973489  0.24741161  0.03131972    -0.56500
O108        O  0.34294642  0.32735968  0.07677050    -0.47000
O109        O  0.32912926  0.25343960  0.08564034    -0.53400
C110        C  0.38727783  0.25309149  0.01318785     0.86700
O111        O  0.32807647  0.32698289  0.97851188    -0.55300
O112        O  0.28338511  0.31556075  0.05228404    -0.58600
C113        C  0.42390925  0.21379575  0.97220338     0.03800
C114        C  0.42206884  0.23351695  0.00952342     0.03800
C115        C  0.45417099  0.23362196  0.04616439    -0.16700
C116        C  0.48803727  0.21555119  0.04651956     0.03800
C117        C  0.49008581  0.19597893  0.00923229     0.03800
C118        C  0.45753401  0.19506005  0.97292720    -0.16700
H119        H  0.45898869  0.18084446  0.94374330     0.05800
H120        H  0.45273029  0.24771816  0.07545240     0.05800
C121        C  0.06359432  0.25150587  0.14272483     0.25100
C122        C  0.07878083  0.22250163  0.16642193    -0.23000
C123        C  0.06342096  0.19107212  0.15060409     0.20100
C124        C  0.03405824  0.18871874  0.11155051     0.25100
C125        C  0.02004516  0.21761670  0.08710350    -0.22900
C126        C  0.03466857  0.24902753  0.10329229     0.20000
F127        F  0.02117116  0.27737330  0.08046300    -0.12900
F128        F  0.07736458  0.28225313  0.15689892    -0.15200
F129        F  0.51906003  0.15821759  0.09782843    -0.15200
F130        F  0.07682090  0.16246863  0.17280608    -0.12900
C131        C  0.21590589  0.21812723  0.12533885     0.25100
C132        C  0.23694749  0.21403081  0.16974245    -0.23000
C133        C  0.27730056  0.21017264  0.17918855     0.20100
C134        C  0.29688028  0.21460318  0.14543049     0.25100
C135        C  0.27615669  0.22269038  0.10174066    -0.22900
C136        C  0.23533387  0.22179046  0.09140869     0.20000
F137        F  0.21420884  0.22807771  0.04941698    -0.12900
F138        F  0.17659843  0.22060763  0.11516877    -0.15200
F139        F  0.33627902  0.21389855  0.15633261    -0.15200
F140        F  0.29808090  0.20574666  0.22179106    -0.12900
C141        C  0.34747997  0.18305655  0.87274860     0.25100
C142        C  0.33554135  0.21310084  0.84971699    -0.23000
C143        C  0.35349784  0.24329782  0.86681405     0.20100
C144        C  0.38224676  0.24348584  0.90658490     0.25100
C145        C  0.39280011  0.21369428  0.93060594    -0.22900
C146        C  0.37568947  0.18340682  0.91299633     0.20000
F147        F  0.38590191  0.15417444  0.93521253    -0.12900
F148        F  0.33092231  0.15344157  0.85724924    -0.15200
F149        F  0.40013162  0.27274216  0.92144924    -0.15200
F150        F  0.34329478  0.27271771  0.84507358    -0.12900
C151        C  0.19573053  0.21724317  0.88781958     0.25100
C152        C  0.17463790  0.22078358  0.84340605    -0.23000
C153        C  0.13399886  0.22129729  0.83352350     0.20100
C154        C  0.11464546  0.21539764  0.86726012     0.25100
C155        C  0.13580351  0.20900396  0.91136398    -0.22900
C156        C  0.17653742  0.21167507  0.92158700     0.20000
F157        F  0.19811584  0.20543423  0.96336717    -0.12900
F158        F  0.23516436  0.21718390  0.89813040    -0.15200
F159        F  0.07528865  0.21347061  0.85612796    -0.15200
F160        F  0.11312011  0.22416416  0.79069967    -0.12900
C161        C  0.17305344  0.13865153  0.38261990     0.25100
C162        C  0.14555049  0.15751483  0.35215057    -0.23000
C163        C  0.10584160  0.15261268  0.34998533     0.20100
C164        C  0.09385807  0.12915283  0.37784034     0.25100
C165        C  0.12141278  0.11023576  0.40858947    -0.22900
C166        C  0.16123100  0.11556027  0.41083450     0.20000
F167        F  0.18907197  0.09850001  0.44047858    -0.12900
F168        F  0.21158073  0.14314874  0.38592549    -0.15200
F169        F  0.05531455  0.12502283  0.37459437    -0.15200
F170        F  0.07850737  0.16991323  0.31998050    -0.12900
C171        C  0.19852440  0.11292413  0.65213027     0.25100
C172        C  0.17838121  0.14006972  0.66430364    -0.23000
C173        C  0.13799052  0.14228421  0.64643239     0.20100
C174        C  0.11857294  0.11873759  0.61565969     0.25100
C175        C  0.13904197  0.09238045  0.60219014    -0.22900
C176        C  0.17909457  0.08938959  0.62139207     0.20000
F177        F  0.20006454  0.06475120  0.60858984    -0.12900
F178        F  0.23741369  0.10972726  0.66861428    -0.15200
F179        F  0.07977120  0.12209813  0.59852632    -0.15200
F180        F  0.11717996  0.16748404  0.65823399    -0.12900
C181        C  0.25654975  0.36319286  0.10596167     0.25100
C182        C  0.29634133  0.35846649  0.10783410    -0.23000
C183        C  0.32384194  0.37692304  0.13922945     0.20100
C184        C  0.31183101  0.39893379  0.16839257     0.25100
C185        C  0.27210768  0.40286489  0.16693989    -0.22900
C186        C  0.24471067  0.38479624  0.13537247     0.20000
F187        F  0.20616334  0.38866242  0.13213105    -0.12900
F188        F  0.22866428  0.34700819  0.07540357    -0.15200
F189        F  0.33917332  0.41575913  0.19887200    -0.15200
F190        F  0.36236697  0.37356887  0.14204888    -0.12900
C191        C  0.14132997  0.03701072  0.14024113     0.25100
C192        C  0.17931856  0.04292943  0.16571923    -0.23000
C193        C  0.19697623  0.07396141  0.16083273     0.20100
C194        C  0.17736590  0.09810524  0.13049630     0.25100
C195        C  0.13954648  0.09184035  0.10452916    -0.22900
C196        C  0.12169503  0.06112123  0.11036814     0.20000
F197        F  0.08533893  0.05375337  0.08619093    -0.12900
F198        F  0.12314494  0.50745635  0.14333724    -0.15200
F199        F  0.19594676  0.12715530  0.12571253    -0.15200
F200        F  0.23353474  0.08083708  0.18481516    -0.12900
C201        C  0.35312289  0.44338260  0.37157908     0.25100
C202        C  0.33461052  0.47323035  0.35396170    -0.23000
C203        C  0.34635068  0.50357798  0.37595163     0.20100
C204        C  0.37531467  0.50380772  0.41557638     0.25100
C205        C  0.39297646  0.47380486  0.43350616    -0.22900
C206        C  0.38225476  0.44375264  0.41078827     0.20000
F207        F  0.40021499  0.41471320  0.42656717    -0.12900
F208        F  0.34313613  0.41371833  0.35086018    -0.15200
F209        F  0.38570539  0.53319669  0.43690374    -0.15200
F210        F  0.32904428  0.53283527  0.36000776    -0.12900
C211        C  0.14120504  0.44947017  0.34801954     0.25100
C212        C  0.18052503  0.45766507  0.35350685    -0.23000
C213        C  0.20224854  0.96810749  0.39549730     0.20100
C214        C  0.18399887  0.97424589  0.42980491     0.25100
C215        C  0.14346104  0.97101638  0.42208626    -0.22900
C216        C  0.12262546  0.45646900  0.38201333     0.20000
F217        F  0.08371013  0.45159281  0.37441661    -0.12900
F218        F  0.11996157  0.43809367  0.30835201    -0.15200
F219        F  0.20536528  0.98716241  0.46852229    -0.15200
F220        F  0.24080179  0.97472690  0.40225318    -0.12900
C221        C  0.30599332  0.27888356  0.65147376     0.25100
C222        C  0.27095698  0.28312794  0.66462383    -0.23000
C223        C  0.24898961  0.31207699  0.65092009     0.20100
C224        C  0.26122734  0.33589866  0.62409543     0.25100
C225        C  0.29620459  0.33178318  0.61096679    -0.22900
C226        C  0.31869569  0.30320040  0.62526144     0.20000
F227        F  0.35238806  0.29832613  0.61292811    -0.12900
F228        F  0.32821524  0.25136808  0.66425749    -0.15200
F229        F  0.23878796  0.36331130  0.61132145    -0.15200
F230        F  0.21522526  0.31729115  0.66296539    -0.12900
C231        C  0.29443542  0.32207671  0.40316953     0.25100
C232        C  0.27362668  0.34748393  0.41816947    -0.23000
C233        C  0.23313843  0.34903135  0.40092745     0.20100
C234        C  0.21393005  0.32571184  0.36947189     0.25100
C235        C  0.23473204  0.30026527  0.35439732    -0.22900
C236        C  0.27531300  0.29889838  0.37154702     0.20000
F237        F  0.29670192  0.27488552  0.35811744    -0.12900
F238        F  0.33342114  0.31938061  0.41943496    -0.15200
F239        F  0.17471319  0.32741511  0.35503121    -0.15200
F240        F  0.21171248  0.37204046  0.41623996    -0.12900
C241        C  0.09377849  0.05162166  0.89104537     0.25100
C242        C  0.12064084  0.07436775  0.91603299    -0.23000
C243        C  0.15973741  0.07273541  0.91341228     0.20100
C244        C  0.17131492  0.04978129  0.88546548     0.25100
C245        C  0.14438867  0.02745024  0.85998324    -0.22900
C246        C  0.10559978  0.02820861  0.86359977     0.20000
F247        F  0.07875657  0.00693419  0.83956728    -0.12900
F248        F  0.05601162  0.05204274  0.89296609    -0.15200
F249        F  0.20915956  0.04917661  0.88380625    -0.15200
F250        F  0.18701588  0.09364790  0.93749688    -0.12900
C251        C  0.22073052  0.35706041  0.85621101     0.25100
C252        C  0.23774771  0.38821978  0.85079407    -0.23000
C253        C  0.27634940  0.39426231  0.87442700     0.20100
C254        C  0.29646996  0.37074800  0.90489894     0.25100
C255        C  0.27856957  0.34051617  0.91256928    -0.22900
C256        C  0.24092544  0.33345549  0.88675385     0.20000
F257        F  0.22286517  0.30429204  0.89229143    -0.12900
F258        F  0.18409572  0.34967164  0.83292657    -0.15200
F259        F  0.33313476  0.37827279  0.92800933    -0.15200
F260        F  0.29452644  0.42343205  0.86917067    -0.12900
C261        C  0.03513039  0.49839403  0.61058557     0.25100
C262        C  0.02223796  0.46908668  0.58691371    -0.23000
C263        C  0.03762174  0.43811583  0.60417197     0.20100
C264        C  0.06570431  0.43649003  0.64445462     0.25100
C265        C  0.07935534  0.46594597  0.66768926    -0.22900
C266        C  0.06374204  0.49691520  0.65033375     0.20000
F267        F  0.07590955  0.52586372  0.67196562    -0.12900
F268        F  0.51957640  0.52845143  0.59547910    -0.15200
F269        F  0.08021457  0.40619355  0.65996981    -0.15200
F270        F  0.02559675  0.40944997  0.58171702    -0.12900
C271        C  0.27460091  0.48134167  0.67943989     0.25100
C272        C  0.23481900  0.47448401  0.67218668    -0.23000
C273        C  0.21328510  0.46653856  0.62910776     0.20100
C274        C  0.23185464  0.46224733  0.59465815     0.25100
C275        C  0.27246925  0.46537724  0.60301236    -0.22900
C276        C  0.29335081  0.47682221  0.64501110     0.20000
F277        F  0.33241536  0.48109834  0.65372221    -0.12900
F278        F  0.29593767  0.48904727  0.72079597    -0.15200
F279        F  0.21057303  0.45138167  0.55468515    -0.15200
F280        F  0.17445307  0.46082406  0.62110342    -0.12900
In281      In  0.17646019  0.96330787  0.77094566     1.36900
C282        C  0.21629353  0.97077633  0.70958628     0.79100
O283        O  0.22976057  0.94302340  0.81716844    -0.59300
O284        O  0.18033477  0.91142705  0.80076750    -0.50200
C285        C  0.15657492  0.50412071  0.82905459     0.71800
O286        O  0.18521145  0.50979515  0.81245202    -0.45100
C287        C  0.11215516  0.96490981  0.70737377     0.76500
O288        O  0.21898943  0.99193081  0.74037876    -0.56900
O289        O  0.12361607  0.93836925  0.72908950    -0.47000
O290        O  0.19550054  0.94562385  0.71230946    -0.53400
C291        C  0.21534503  0.91477037  0.82197037     0.86700
O292        O  0.13882637  0.97714939  0.81658978    -0.55300
O293        O  0.13235534  0.99056721  0.72064903    -0.58600
In294      In  0.32329243  0.90470369  0.52807015     1.36900
C295        C  0.29317434  0.94877706  0.57309521     0.79100
O296        O  0.28237141  0.87516528  0.55642160    -0.59300
O297        O  0.34207092  0.86257256  0.57837682    -0.50200
C298        C  0.29334801  0.87003138  0.45473347     0.71800
O299        O  0.27918248  0.89752281  0.46293594    -0.45100
C300        C  0.38713739  0.93592631  0.51655614     0.76500
O301        O  0.27775952  0.94251401  0.53261162    -0.56900
O302        O  0.38819616  0.91157469  0.54314051    -0.47000
O303        O  0.32602224  0.93566168  0.58806518    -0.53400
C304        C  0.30752540  0.85698471  0.58117954     0.86700
O305        O  0.32478850  0.86226658  0.48188839    -0.55300
O306        O  0.35327232  0.94375098  0.49513347    -0.58600
In307      In  0.23680467  0.96893508  0.25212837     1.36900
C308        C  0.19781463  0.96115612  0.31493299     0.79100
O309        O  0.28315152  0.94499857  0.30319079    -0.59300
O310        O  0.28714876  0.99755403  0.29277064    -0.50200
C311        C  0.25914765  0.92626001  0.19735291     0.71800
O312        O  0.22809364  0.92236020  0.21002958    -0.45100
C313        C  0.20014588  0.01665338  0.19670317     0.76500
O314        O  0.19631691  0.93918596  0.28539361    -0.56900
O315        O  0.23465512  0.51982126  0.21937004    -0.47000
O316        O  0.21631102  0.98718988  0.30979694    -0.53400
C317        C  0.30114668  0.97196614  0.31517706     0.86700
O318        O  0.27824823  0.95203131  0.21245378    -0.55300
O319        O  0.18474333  0.98902325  0.20256203    -0.58600
In320      In  0.09202898  0.53683422  0.49061722     1.36900
C321        C  0.12277912  0.49020505  0.44976601     0.79100
O322        O  0.06129671  0.49943302  0.52484320    -0.59300
O323        O  0.02699615  0.53119143  0.47572447    -0.50200
C324        C  0.11993577  0.57053001  0.56480124     0.71800
O325        O  0.13420624  0.54308014  0.55671801    -0.45100
C326        C  0.10944291  0.58462856  0.43781463     0.76500
O327        O  0.13821293  0.49893067  0.48929138    -0.56900
O328        O  0.07454560  0.57693407  0.43688377    -0.47000
O329        O  0.08985611  0.50278145  0.43346121    -0.53400
C330        C  0.02761000  0.50758590  0.50336205     0.86700
O331        O  0.08939312  0.57903770  0.53658807    -0.55300
O332        O  0.13414583  0.56819539  0.46580343    -0.58600
C333        C  0.49006489  0.97046315  0.54648888     0.03800
C334        C  0.49166828  0.99018786  0.50869039     0.03800
C335        C  0.45846178  0.99181874  0.47340258    -0.16700
C336        C  0.42450449  0.97392616  0.47438684     0.03800
C337        C  0.42283424  0.95425822  0.51211634     0.03800
C338        C  0.45588238  0.95287527  0.54757604    -0.16700
H339        H  0.45478003  0.93859013  0.57713786     0.05800
H340        H  0.45948403  0.50598532  0.44372025     0.05800
In341      In  0.23697547  0.71396092  0.74794268     1.36900
C342        C  0.19528506  0.71873123  0.80776034     0.79100
O343        O  0.18382589  0.69344267  0.70092955    -0.59300
O344        O  0.23464913  0.66385820  0.71513925    -0.50200
C345        C  0.25770865  0.75799624  0.69320372     0.71800
O346        O  0.23167261  0.76386344  0.71360638    -0.45100
C347        C  0.30210275  0.71342442  0.81065908     0.76500
O348        O  0.19057149  0.73890531  0.77521672    -0.56900
O349        O  0.28864453  0.68735908  0.78935530    -0.47000
O350        O  0.21969247  0.69600594  0.80813790    -0.53400
C351        C  0.19947434  0.66637929  0.69435620     0.86700
O352        O  0.27195569  0.72908180  0.69975810    -0.55300
O353        O  0.28322108  0.73975863  0.79771559    -0.58600
In354      In  0.09028147  0.64876046  0.99348837     1.36900
C355        C  0.11672427  0.69227687  0.94331546     0.79100
O356        O  0.13304140  0.61855914  0.96945397    -0.59300
O357        O  0.07350257  0.60619707  0.94447090    -0.50200
C358        C  0.12020756  0.61497294  0.06800076     0.71800
O359        O  0.13482073  0.64240783  0.05911166    -0.45100
C360        C  0.02604508  0.67830376  0.00527632     0.76500
O361        O  0.13276437  0.68853368  0.98436078    -0.56900
O362        O  0.02523894  0.65318543  0.98047706    -0.47000
O363        O  0.08492245  0.67689879  0.93019967    -0.53400
C364        C  0.10850200  0.60016620  0.94412797     0.86700
O365        O  0.08858797  0.60736653  0.04107741    -0.55300
O366        O  0.05988836  0.68775270  0.02489313    -0.58600
In367      In  0.17785217  0.72639752  0.26759218     1.36900
C368        C  0.21732985  0.71833269  0.20600783     0.79100
O369        O  0.13164148  0.69876758  0.22067229    -0.59300
O370        O  0.12613801  0.75167455  0.22340725    -0.50200
C371        C  0.15811263  0.68239037  0.32295118     0.71800
O372        O  0.18803275  0.67890326  0.30813304    -0.45100
C373        C  0.21426867  0.77453600  0.32242073     0.76500
O374        O  0.22197634  0.69907045  0.23945190    -0.56900
O375        O  0.17879256  0.77615968  0.30239910    -0.47000
O376        O  0.19447502  0.74230843  0.20575684    -0.53400
C377        C  0.11261909  0.72447619  0.20501972     0.86700
O378        O  0.13934653  0.70881072  0.31047891    -0.55300
O379        O  0.23089216  0.74870225  0.31343628    -0.58600
In380      In  0.32506986  0.78540656  0.02584963     1.36900
C381        C  0.29609144  0.74030006  0.07139349     0.79100
O382        O  0.35311915  0.74630769  0.99167855    -0.59300
O383        O  0.38947391  0.77724714  0.03991045    -0.50200
C384        C  0.29719393  0.81867417  0.95068805     0.71800
O385        O  0.28224461  0.79154976  0.95986912    -0.45100
C386        C  0.30817303  0.83341919  0.07811364     0.76500
O387        O  0.27973472  0.74741130  0.03131980    -0.56500
O388        O  0.34294630  0.82735914  0.07677091    -0.47000
O389        O  0.32912894  0.75343942  0.08564058    -0.53400
C390        C  0.38727764  0.75309109  0.01318783     0.86700
O391        O  0.32807643  0.82698246  0.97851195    -0.55300
O392        O  0.28338493  0.81556069  0.05228379    -0.58600
C393        C  0.42390908  0.71379541  0.97220321     0.03800
C394        C  0.42206866  0.73351663  0.00952327     0.03800
C395        C  0.45417092  0.73362182  0.04616412    -0.16700
C396        C  0.48803724  0.71555117  0.04651918     0.03800
C397        C  0.49008580  0.69597891  0.00923195     0.03800
C398        C  0.45753394  0.69505988  0.97292694    -0.16700
H399        H  0.45898867  0.68084430  0.94374305     0.05800
H400        H  0.45273027  0.74771806  0.07545211     0.05800
C401        C  0.06359457  0.75150613  0.14272385     0.25100
C402        C  0.07878079  0.72250197  0.16642137    -0.23000
C403        C  0.06342081  0.69107243  0.15060383     0.20100
C404        C  0.03405813  0.68871893  0.11155024     0.25100
C405        C  0.02004521  0.71761680  0.08710296    -0.22900
C406        C  0.03466883  0.74902766  0.10329131     0.20000
F407        F  0.02117163  0.77737331  0.08046160    -0.12900
F408        F  0.07736507  0.78225341  0.15689753    -0.15200
F409        F  0.51905982  0.65821775  0.09782845    -0.15200
F410        F  0.07682057  0.66246902  0.17280616    -0.12900
C411        C  0.21590540  0.71812765  0.12533893     0.25100
C412        C  0.23694697  0.71403111  0.16974252    -0.23000
C413        C  0.27730001  0.71017266  0.17918863     0.20100
C414        C  0.29687977  0.71460305  0.14543059     0.25100
C415        C  0.27615625  0.72269033  0.10174077    -0.22900
C416        C  0.23533342  0.72179068  0.09140878     0.20000
F417        F  0.21420845  0.72807802  0.04941707    -0.12900
F418        F  0.17659797  0.72060837  0.11516887    -0.15200
F419        F  0.33627849  0.71389818  0.15633272    -0.15200
F420        F  0.29808029  0.70574657  0.22179115    -0.12900
C421        C  0.34748037  0.68305597  0.87274802     0.25100
C422        C  0.33554138  0.71310029  0.84971664    -0.23000
C423        C  0.35349740  0.74329736  0.86681403     0.20100
C424        C  0.38224619  0.74348545  0.90658496     0.25100
C425        C  0.39279991  0.71369385  0.93060579    -0.22900
C426        C  0.37568974  0.68340631  0.91299585     0.20000
F427        F  0.38590255  0.65417389  0.93521181    -0.12900
F428        F  0.33092324  0.65344089  0.85724830    -0.15200
F429        F  0.40013060  0.77274189  0.92144957    -0.15200
F430        F  0.34329400  0.77271728  0.84507380    -0.12900
C431        C  0.19573061  0.71724273  0.88781905     0.25100
C432        C  0.17463799  0.72078266  0.84340545    -0.23000
C433        C  0.13399895  0.72129610  0.83352281     0.20100
C434        C  0.11464554  0.71539679  0.86725948     0.25100
C435        C  0.13580358  0.70900374  0.91136352    -0.22900
C436        C  0.17653748  0.71167506  0.92158656     0.20000
F437        F  0.19811589  0.70543490  0.96336693    -0.12900
F438        F  0.23516445  0.71718357  0.89812991    -0.15200
F439        F  0.07528875  0.71346946  0.85612724    -0.15200
F440        F  0.11312025  0.72416237  0.79069888    -0.12900
C441        C  0.17305316  0.63865226  0.38262018     0.25100
C442        C  0.14555015  0.65751516  0.35215040    -0.23000
C443        C  0.10584123  0.65261253  0.34998460     0.20100
C444        C  0.09385774  0.62915257  0.37783952     0.25100
C445        C  0.12141252  0.61023587  0.40858909    -0.22900
C446        C  0.16123076  0.61556089  0.41083468     0.20000
F447        F  0.18907178  0.59850106  0.44047925    -0.12900
F448        F  0.21158046  0.64314994  0.38592629    -0.15200
F449        F  0.05531421  0.62502206  0.37459297    -0.15200
F450        F  0.07850697  0.66991268  0.31997930    -0.12900
C451        C  0.19852485  0.61292325  0.65213006     0.25100
C452        C  0.17838171  0.64006892  0.66430331    -0.23000
C453        C  0.13799102  0.64228343  0.64643212     0.20100
C454        C  0.11857340  0.61873679  0.61565952     0.25100
C455        C  0.13904240  0.59237968  0.60218989    -0.22900
C456        C  0.17909498  0.58938873  0.62139186     0.20000
F457        F  0.20006488  0.56475026  0.60858967    -0.12900
F458        F  0.23741411  0.60972626  0.66861425    -0.15200
F459        F  0.07977164  0.62209732  0.59852628    -0.15200
F460        F  0.11718049  0.66748331  0.65823364    -0.12900
C461        C  0.25654956  0.86319307  0.10596116     0.25100
C462        C  0.29634118  0.85846623  0.10783415    -0.23000
C463        C  0.32384181  0.87692233  0.13923005     0.20100
C464        C  0.31183086  0.89893305  0.16839320     0.25100
C465        C  0.27210750  0.90286455  0.16694002    -0.22900
C466        C  0.24471047  0.88479642  0.13537198     0.20000
F467        F  0.20616311  0.88866312  0.13212997    -0.12900
F468        F  0.22866410  0.84700888  0.07540248    -0.15200
F469        F  0.33917318  0.91575796  0.19887314    -0.15200
F470        F  0.36236687  0.87356774  0.14205001    -0.12900
C471        C  0.14132954  0.53701175  0.14024249     0.25100
C472        C  0.17931847  0.54293010  0.16571985    -0.23000
C473        C  0.19697646  0.57396183  0.16083283     0.20100
C474        C  0.17736619  0.59810568  0.13049639     0.25100
C475        C  0.13954651  0.59184107  0.10452978    -0.22900
C476        C  0.12169466  0.56112229  0.11036950     0.20000
F477        F  0.08533822  0.55375479  0.08619297    -0.12900
F478        F  0.12314578  0.00745501  0.14333517    -0.15200
F479        F  0.19594739  0.62715543  0.12571198    -0.15200
F480        F  0.23353525  0.58083721  0.18481468    -0.12900
C481        C  0.35312291  0.94338228  0.37157898     0.25100
C482        C  0.33461043  0.97322999  0.35396165    -0.23000
C483        C  0.34635062  0.00357766  0.37595149     0.20100
C484        C  0.37531470  0.00380745  0.41557615     0.25100
C485        C  0.39297658  0.97380462  0.43350594    -0.22900
C486        C  0.38225489  0.94375237  0.41078809     0.20000
F487        F  0.40021523  0.91471298  0.42656697    -0.12900
F488        F  0.34313614  0.91371800  0.35086012    -0.15200
F489        F  0.38570541  0.03319644  0.43690346    -0.15200
F490        F  0.32904414  0.03283491  0.36000763    -0.12900
C491        C  0.14120445  0.94947054  0.34801959     0.25100
C492        C  0.18052452  0.95766513  0.35350690    -0.23000
C493        C  0.20224890  0.46810770  0.39549718     0.20100
C494        C  0.18399912  0.47424606  0.42980469     0.25100
C495        C  0.14346131  0.47101623  0.42208599    -0.22900
C496        C  0.12262500  0.95646940  0.38201351     0.20000
F497        F  0.08370963  0.95159346  0.37441683    -0.12900
F498        F  0.11996080  0.93809432  0.30835200    -0.15200
F499        F  0.20536533  0.48716291  0.46852194    -0.15200
F500        F  0.24080208  0.47472744  0.40225308    -0.12900
C501        C  0.30599286  0.77888372  0.65147349     0.25100
C502        C  0.27095644  0.78312786  0.66462342    -0.23000
C503        C  0.24898883  0.81207677  0.65091951     0.20100
C504        C  0.26122644  0.83589851  0.62409481     0.25100
C505        C  0.29620385  0.83178328  0.61096641    -0.22900
C506        C  0.31869514  0.80320063  0.62526123     0.20000
F507        F  0.35238764  0.79832655  0.61292811    -0.12900
F508        F  0.32821500  0.75136837  0.66425732    -0.15200
F509        F  0.23878680  0.86331097  0.61132055    -0.15200
F510        F  0.21522438  0.81729073  0.66296471    -0.12900
C511        C  0.29443515  0.82207707  0.40316934     0.25100
C512        C  0.27362646  0.84748427  0.41816939    -0.23000
C513        C  0.23313820  0.84903169  0.40092751     0.20100
C514        C  0.21392974  0.82571220  0.36947199     0.25100
C515        C  0.23473167  0.80026566  0.35439729    -0.22900
C516        C  0.27531265  0.79889877  0.37154684     0.20000
F517        F  0.29670153  0.77488591  0.35811716    -0.12900
F518        F  0.33342088  0.81938097  0.41943465    -0.15200
F519        F  0.17471287  0.82741547  0.35503147    -0.15200
F520        F  0.21171231  0.87204079  0.41624015    -0.12900
C521        C  0.09377847  0.55162257  0.89104441     0.25100
C522        C  0.12064102  0.57436817  0.91603276    -0.23000
C523        C  0.15973766  0.57273556  0.91341237     0.20100
C524        C  0.17131507  0.54978163  0.88546525     0.25100
C525        C  0.14438864  0.52745101  0.85998242    -0.22900
C526        C  0.10559965  0.52820969  0.86359850     0.20000
F527        F  0.07875624  0.50693577  0.83956531    -0.12900
F528        F  0.05601150  0.55204396  0.89296470    -0.15200
F529        F  0.20915978  0.54917667  0.88380634    -0.15200
F530        F  0.18701631  0.59364757  0.93749765    -0.12900
C531        C  0.22073032  0.85706006  0.85621148     0.25100
C532        C  0.23774774  0.88821923  0.85079408    -0.23000
C533        C  0.27634963  0.89426154  0.87442652     0.20100
C534        C  0.29647017  0.87074723  0.90489849     0.25100
C535        C  0.27856954  0.84051564  0.91256932    -0.22900
C536        C  0.24092520  0.83345516  0.88675433     0.20000
F537        F  0.22286467  0.80429195  0.89229242    -0.12900
F538        F  0.18409530  0.84967151  0.83292752    -0.15200
F539        F  0.33313518  0.87827179  0.92800845    -0.15200
F540        F  0.29452690  0.92343106  0.86916969    -0.12900
C541        C  0.03513072  0.99839422  0.61058559     0.25100
C542        C  0.02223773  0.96908684  0.58691405    -0.23000
C543        C  0.03762102  0.93811592  0.60417265     0.20100
C544        C  0.06570360  0.93649006  0.64445527     0.25100
C545        C  0.07935523  0.96594600  0.66768957    -0.22900
C546        C  0.06374246  0.99691532  0.65033372     0.20000
F547        F  0.07591058  0.02586388  0.67196517    -0.12900
F548        F  0.51957722  0.02845175  0.59547890    -0.15200
F549        F  0.08021326  0.90619347  0.65997080    -0.15200
F550        F  0.02559553  0.90945002  0.58171803    -0.12900
C551        C  0.27460097  0.98134119  0.67944051     0.25100
C552        C  0.23481903  0.97448365  0.67218724    -0.23000
C553        C  0.21328513  0.96653831  0.62910829     0.20100
C554        C  0.23185465  0.96224714  0.59465867     0.25100
C555        C  0.27246926  0.96537709  0.60301285    -0.22900
C556        C  0.29335086  0.97682185  0.64501167     0.20000
F557        F  0.33241542  0.98109789  0.65372283    -0.12900
F558        F  0.29593777  0.98904656  0.72079666    -0.15200
F559        F  0.21057301  0.95138150  0.55468566    -0.15200
F560        F  0.17445308  0.96082386  0.62110392    -0.12900
In561      In  0.67646028  0.46330840  0.77094536     1.36900
C562        C  0.71629349  0.47077673  0.70958579     0.79100
O563        O  0.72976052  0.44302412  0.81716864    -0.59300
O564        O  0.68033502  0.41142749  0.80076705    -0.50200
C565        C  0.65657503  0.00411998  0.82905554     0.71800
O566        O  0.68521128  0.00979469  0.81245256    -0.45100
C567        C  0.61215520  0.46491011  0.70737365     0.76500
O568        O  0.71898947  0.49193123  0.74037826    -0.56900
O569        O  0.62361600  0.43836967  0.72908974    -0.47000
O570        O  0.69550051  0.44562427  0.71230908    -0.53400
C571        C  0.71534514  0.41477098  0.82197031     0.86700
O572        O  0.63882634  0.47715016  0.81658924    -0.55300
O573        O  0.63235550  0.49056753  0.72064848    -0.58600
In574      In  0.82329263  0.40470352  0.52807022     1.36900
C575        C  0.79317439  0.44877704  0.57309499     0.79100
O576        O  0.78237188  0.37516500  0.55642183    -0.59300
O577        O  0.84207146  0.36257252  0.57837705    -0.50200
C578        C  0.79334808  0.37003113  0.45473359     0.71800
O579        O  0.77918241  0.39752245  0.46293621    -0.45100
C580        C  0.88713759  0.43592613  0.51655618     0.76500
O581        O  0.77775976  0.44251402  0.53261135    -0.56900
O582        O  0.88819638  0.41157447  0.54314048    -0.47000
O583        O  0.82602216  0.43566150  0.58806522    -0.53400
C584        C  0.80752599  0.35698457  0.58117983     0.86700
O585        O  0.82478872  0.36226649  0.48188833    -0.55300
O586        O  0.85327250  0.44375085  0.49513363    -0.58600
In587      In  0.73680489  0.46893544  0.25212835     1.36900
C588        C  0.69781513  0.46115621  0.31493308     0.79100
O589        O  0.78315181  0.44499890  0.30319057    -0.59300
O590        O  0.78714888  0.49755441  0.29277076    -0.50200
C591        C  0.75914782  0.42626045  0.19735281     0.71800
O592        O  0.72809396  0.42236050  0.21002975    -0.45100
C593        C  0.70014582  0.51665389  0.19670367     0.76500
O594        O  0.69631726  0.43918617  0.28539351    -0.56900
O595        O  0.73465492  0.01982086  0.21937028    -0.47000
O596        O  0.71631155  0.48718998  0.30979719    -0.53400
C597        C  0.80114686  0.47196648  0.31517703     0.86700
O598        O  0.77824823  0.45203190  0.21245336    -0.55300
O599        O  0.68474319  0.48902384  0.20256272    -0.58600
In600      In  0.59202895  0.03683455  0.49061792     1.36900
C601        C  0.62277901  0.99020544  0.44976647     0.79100
O602        O  0.56129667  0.99943315  0.52484362    -0.59300
O603        O  0.52699613  0.03119170  0.47572504    -0.50200
C604        C  0.61993541  0.07053061  0.56480183     0.71800
O605        O  0.63420599  0.04308072  0.55671880    -0.45100
C606        C  0.60944308  0.08462879  0.43781539     0.76500
O607        O  0.63821287  0.99893093  0.48929190    -0.56900
O608        O  0.57454574  0.07693434  0.43688444    -0.47000
O609        O  0.58985606  0.00278199  0.43346176    -0.53400
C610        C  0.52760996  0.00758606  0.50336247     0.86700
O611        O  0.58939276  0.07903816  0.53658857    -0.55300
O612        O  0.63414595  0.06819565  0.46580431    -0.58600
C613        C  0.99006517  0.47046276  0.54648843     0.03800
C614        C  0.99166835  0.49018772  0.50869011     0.03800
C615        C  0.95846169  0.49181883  0.47340256    -0.16700
C616        C  0.92450445  0.47392623  0.47438693     0.03800
C617        C  0.92283442  0.45425803  0.51211628     0.03800
C618        C  0.95588275  0.45287481  0.54757571    -0.16700
H619        H  0.95478060  0.43858946  0.57713743     0.05800
H620        H  0.95948419  0.00598491  0.44372000     0.05800
In621      In  0.73697533  0.21396155  0.74794327     1.36900
C622        C  0.69528510  0.21873199  0.80776110     0.79100
O623        O  0.68382561  0.19344361  0.70092986    -0.59300
O624        O  0.73464851  0.16385870  0.71514023    -0.50200
C625        C  0.75770898  0.25799650  0.69320425     0.71800
O626        O  0.73167315  0.26386402  0.71360709    -0.45100
C627        C  0.80210266  0.21342505  0.81065957     0.76500
O628        O  0.69057146  0.23890607  0.77521745    -0.56900
O629        O  0.78864449  0.18735975  0.78935566    -0.47000
O630        O  0.71969243  0.19600665  0.80813854    -0.53400
C631        C  0.69947385  0.16638004  0.69435681     0.86700
O632        O  0.77195558  0.22908190  0.69975845    -0.55300
O633        O  0.78322092  0.23975927  0.79771628    -0.58600
In634      In  0.59028131  0.14876021  0.99348852     1.36900
C635        C  0.61672436  0.19227675  0.94331596     0.79100
O636        O  0.63304124  0.11855902  0.96945397    -0.59300
O637        O  0.57350242  0.10619677  0.94447107    -0.50200
C638        C  0.62020745  0.11497235  0.06800056     0.71800
O639        O  0.63482053  0.14240737  0.05911176    -0.45100
C640        C  0.52604505  0.17830365  0.00527671     0.76500
O641        O  0.63276432  0.18853340  0.98436129    -0.56900
O642        O  0.52523880  0.15318541  0.98047726    -0.47000
O643        O  0.58492255  0.17689869  0.93019992    -0.53400
C644        C  0.60850187  0.10016594  0.94412814     0.86700
O645        O  0.58858787  0.10736600  0.04107716    -0.55300
O646        O  0.55988837  0.18775241  0.02489363    -0.58600
In647      In  0.67785260  0.22639709  0.26759229     1.36900
C648        C  0.71733029  0.21833232  0.20600782     0.79100
O649        O  0.63164176  0.19876713  0.22067253    -0.59300
O650        O  0.62613820  0.25167407  0.22340778    -0.50200
C651        C  0.65811299  0.18239011  0.32295148     0.71800
O652        O  0.68803282  0.17890268  0.30813289    -0.45100
C653        C  0.71426906  0.27453565  0.32242077     0.76500
O654        O  0.72197709  0.19907028  0.23945211    -0.56900
O655        O  0.67879313  0.27615957  0.30239849    -0.47000
O656        O  0.69447510  0.24230782  0.20575663    -0.53400
C657        C  0.61261924  0.22447574  0.20502022     0.86700
O658        O  0.63934720  0.20881066  0.31047952    -0.55300
O659        O  0.73089243  0.24870161  0.31343699    -0.58600
In660      In  0.82507002  0.28540699  0.02584962     1.36900
C661        C  0.79609176  0.24030029  0.07139344     0.79100
O662        O  0.85311938  0.24630834  0.99167833    -0.59300
O663        O  0.88947407  0.27724744  0.03991078    -0.50200
C664        C  0.79719405  0.31867477  0.95068813     0.71800
O665        O  0.78224473  0.29155033  0.95986910    -0.45100
C666        C  0.80817321  0.33341950  0.07811374     0.76500
O667        O  0.77973493  0.24741164  0.03131982    -0.56500
O668        O  0.84294645  0.32735968  0.07677071    -0.47000
O669        O  0.82912926  0.25343967  0.08564048    -0.53400
C670        C  0.88727783  0.25309153  0.01318795     0.86700
O671        O  0.82807655  0.32698299  0.97851206    -0.55300
O672        O  0.78338514  0.31556081  0.05228417    -0.58600
C673        C  0.92390917  0.21379575  0.97220345     0.03800
C674        C  0.92206881  0.23351698  0.00952349     0.03800
C675        C  0.95417101  0.23362200  0.04616441    -0.16700
C676        C  0.98803727  0.21555122  0.04651953     0.03800
C677        C  0.99008575  0.19597893  0.00923227     0.03800
C678        C  0.95753391  0.19506004  0.97292722    -0.16700
H679        H  0.95898854  0.18084442  0.94374332     0.05800
H680        H  0.95273036  0.24771823  0.07545242     0.05800
C681        C  0.56359418  0.25150584  0.14272501     0.25100
C682        C  0.57878076  0.22250159  0.16642204    -0.23000
C683        C  0.56342096  0.19107208  0.15060413     0.20100
C684        C  0.53405825  0.18871870  0.11155054     0.25100
C685        C  0.52004512  0.21761667  0.08710358    -0.22900
C686        C  0.53466846  0.24902751  0.10329245     0.20000
F687        F  0.52117100  0.27737328  0.08046321    -0.12900
F688        F  0.57736435  0.28225311  0.15689919    -0.15200
F689        F  0.01905994  0.15821764  0.09782847    -0.15200
F690        F  0.57682096  0.16246858  0.17280608    -0.12900
C691        C  0.71590588  0.21812722  0.12533890     0.25100
C692        C  0.73694747  0.21403082  0.16974252    -0.23000
C693        C  0.77730055  0.21017266  0.17918863     0.20100
C694        C  0.79688028  0.21460321  0.14543059     0.25100
C695        C  0.77615670  0.22269040  0.10174075    -0.22900
C696        C  0.73533388  0.22179045  0.09140876     0.20000
F697        F  0.71420887  0.22807767  0.04941703    -0.12900
F698        F  0.67659842  0.22060762  0.11516880    -0.15200
F699        F  0.83627901  0.21389859  0.15633273    -0.15200
F700        F  0.79808087  0.20574669  0.22179115    -0.12900
C701        C  0.84747978  0.18305657  0.87274881     0.25100
C702        C  0.83554131  0.21310084  0.84971708    -0.23000
C703        C  0.85349788  0.24329781  0.86681406     0.20100
C704        C  0.88224676  0.24348583  0.90658493     0.25100
C705        C  0.89280002  0.21369428  0.93060605    -0.22900
C706        C  0.87568927  0.18340684  0.91299654     0.20000
F707        F  0.88590159  0.15417448  0.93521284    -0.12900
F708        F  0.83092196  0.15344161  0.85724957    -0.15200
F709        F  0.90013169  0.27274214  0.92144922    -0.15200
F710        F  0.84329494  0.27271767  0.84507348    -0.12900
C711        C  0.69573085  0.21724266  0.88781983     0.25100
C712        C  0.67463818  0.22078341  0.84340637    -0.23000
C713        C  0.63399915  0.22129742  0.83352392     0.20100
C714        C  0.61464577  0.21539776  0.86726054     0.25100
C715        C  0.63580382  0.20900383  0.91136433    -0.22900
C716        C  0.67653776  0.21167459  0.92158728     0.20000
F717        F  0.69811618  0.20543341  0.96336735    -0.12900
F718        F  0.73516468  0.21718305  0.89813056    -0.15200
F719        F  0.57528894  0.21347098  0.85612844    -0.15200
F720        F  0.61312037  0.22416459  0.79070014    -0.12900
C721        C  0.67305342  0.13865175  0.38262018     0.25100
C722        C  0.64555047  0.15751504  0.35215085    -0.23000
C723        C  0.60584158  0.15261293  0.34998567     0.20100
C724        C  0.59385806  0.12915309  0.37784070     0.25100
C725        C  0.62141277  0.11023599  0.40858978    -0.22900
C726        C  0.66123100  0.11556050  0.41083480     0.20000
F727        F  0.68907197  0.09850024  0.44047888    -0.12900
F728        F  0.71158071  0.14314895  0.38592574    -0.15200
F729        F  0.55531454  0.12502311  0.37459476    -0.15200
F730        F  0.57850735  0.16991351  0.31998087    -0.12900
C731        C  0.69852452  0.11292439  0.65213000     0.25100
C732        C  0.67838122  0.14006973  0.66430379    -0.23000
C733        C  0.63799045  0.14228398  0.64643296     0.20100
C734        C  0.61857288  0.11873735  0.61566028     0.25100
C735        C  0.63904201  0.09238044  0.60219033    -0.22900
C736        C  0.67909470  0.08938984  0.62139183     0.20000
F737        F  0.70006475  0.06475172  0.60858914    -0.12900
F738        F  0.73741390  0.10972779  0.66861355    -0.15200
F739        F  0.57977105  0.12209763  0.59852731    -0.15200
F740        F  0.61717981  0.16748357  0.65823499    -0.12900
C741        C  0.75654977  0.36319283  0.10596188     0.25100
C742        C  0.79634135  0.35846651  0.10783426    -0.23000
C743        C  0.82384195  0.37692313  0.13922952     0.20100
C744        C  0.81183102  0.39893390  0.16839262     0.25100
C745        C  0.77210770  0.40286493  0.16694000    -0.22900
C746        C  0.74471069  0.38479623  0.13537265     0.20000
F747        F  0.70616336  0.38866238  0.13213127    -0.12900
F748        F  0.72866431  0.34700809  0.07540387    -0.15200
F749        F  0.83917332  0.41575932  0.19887195    -0.15200
F750        F  0.86236698  0.37356902  0.14204888    -0.12900
C751        C  0.64132994  0.03701068  0.14024129     0.25100
C752        C  0.67931854  0.04292938  0.16571938    -0.23000
C753        C  0.69697623  0.07396134  0.16083287     0.20100
C754        C  0.67736592  0.09810517  0.13049643     0.25100
C755        C  0.63954649  0.09184030  0.10452930    -0.22900
C756        C  0.62169502  0.06112118  0.11036829     0.20000
F757        F  0.58533893  0.05375333  0.08619106    -0.12900
F758        F  0.62314489  0.50745634  0.14333737    -0.15200
F759        F  0.69594683  0.12715520  0.12571260    -0.15200
F760        F  0.73353475  0.08083700  0.18481531    -0.12900
C761        C  0.85312289  0.44338254  0.37157905     0.25100
C762        C  0.83461050  0.47323028  0.35396171    -0.23000
C763        C  0.84635064  0.50357791  0.37595167     0.20100
C764        C  0.87531463  0.50380764  0.41557640     0.25100
C765        C  0.89297645  0.47380478  0.43350614    -0.22900
C766        C  0.88225477  0.44375256  0.41078822     0.20000
F767        F  0.90021505  0.41471314  0.42656706    -0.12900
F768        F  0.84313613  0.41371828  0.35086012    -0.15200
F769        F  0.88570534  0.53319659  0.43690380    -0.15200
F770        F  0.82904423  0.53283520  0.36000782    -0.12900
C771        C  0.64120502  0.44947030  0.34801960     0.25100
C772        C  0.68052503  0.45766512  0.35350696    -0.23000
C773        C  0.70224856  0.96810755  0.39549743     0.20100
C774        C  0.68399886  0.97424601  0.42980500     0.25100
C775        C  0.64346101  0.97101655  0.42208630    -0.22900
C776        C  0.62262543  0.45646916  0.38201338     0.20000
F777        F  0.58371008  0.45159304  0.37441662    -0.12900
F778        F  0.61996154  0.43809387  0.30835204    -0.15200
F779        F  0.70536526  0.98716252  0.46852238    -0.15200
F780        F  0.74080183  0.97472689  0.40225337    -0.12900
C781        C  0.80599323  0.27888355  0.65147371     0.25100
C782        C  0.77095696  0.28312797  0.66462392    -0.23000
C783        C  0.74898966  0.31207708  0.65092032     0.20100
C784        C  0.76122738  0.33589876  0.62409567     0.25100
C785        C  0.79620456  0.33178323  0.61096688    -0.22900
C786        C  0.81869560  0.30320039  0.62526139     0.20000
F787        F  0.85238789  0.29832607  0.61292792    -0.12900
F788        F  0.82821508  0.25136801  0.66425728    -0.15200
F789        F  0.73878807  0.36331146  0.61132182    -0.15200
F790        F  0.71522538  0.31729130  0.66296576    -0.12900
C791        C  0.79443535  0.32207687  0.40316943     0.25100
C792        C  0.77362657  0.34748398  0.41816951    -0.23000
C793        C  0.73313830  0.34903131  0.40092762     0.20100
C794        C  0.71392994  0.32571181  0.36947203     0.25100
C795        C  0.73473197  0.30026534  0.35439732    -0.22900
C796        C  0.77531294  0.29889854  0.37154690     0.20000
F797        F  0.79670191  0.27488578  0.35811716    -0.12900
F798        F  0.83342109  0.31938086  0.41943474    -0.15200
F799        F  0.67471306  0.32741498  0.35503148    -0.15200
F800        F  0.71171232  0.37204031  0.41624028    -0.12900
C801        C  0.59377865  0.05162157  0.89104574     0.25100
C802        C  0.62064097  0.07436776  0.91603320    -0.23000
C803        C  0.65973751  0.07273549  0.91341234     0.20100
C804        C  0.67131500  0.04978136  0.88546555     0.25100
C805        C  0.64438877  0.02745022  0.85998346    -0.22900
C806        C  0.60559993  0.02820850  0.86360015     0.20000
F807        F  0.57875674  0.00693398  0.83956784    -0.12900
F808        F  0.55601182  0.05204257  0.89296661    -0.15200
F809        F  0.70915961  0.04917675  0.88380616    -0.15200
F810        F  0.68701595  0.09364808  0.93749678    -0.12900
C811        C  0.72073067  0.35706054  0.85621110     0.25100
C812        C  0.73774786  0.38821990  0.85079414    -0.23000
C813        C  0.77634954  0.39426245  0.87442711     0.20100
C814        C  0.79647008  0.37074815  0.90489911     0.25100
C815        C  0.77856967  0.34051633  0.91256946    -0.22900
C816        C  0.74092556  0.33345564  0.88675399     0.20000
F817        F  0.72286527  0.30429221  0.89229158    -0.12900
F818        F  0.68409589  0.34967175  0.83292661    -0.15200
F819        F  0.83313486  0.37827296  0.92800955    -0.15200
F820        F  0.79452660  0.42343217  0.86917073    -0.12900
C821        C  0.53513043  0.49839420  0.61058568     0.25100
C822        C  0.52223788  0.46908682  0.58691392    -0.23000
C823        C  0.53762151  0.43811596  0.60417235     0.20100
C824        C  0.56570408  0.43649018  0.64445499     0.25100
C825        C  0.57935525  0.46594613  0.66768951    -0.22900
C826        C  0.56374208  0.49691537  0.65033387     0.20000
F827        F  0.57590973  0.52586391  0.67196561    -0.12900
F828        F  0.01957622  0.52845124  0.59547910    -0.15200
F829        F  0.58021423  0.40619369  0.65997029    -0.15200
F830        F  0.52559638  0.40945007  0.58171754    -0.12900
C831        C  0.77460086  0.48134167  0.67943992     0.25100
C832        C  0.73481896  0.47448401  0.67218670    -0.23000
C833        C  0.71328508  0.46653855  0.62910777     0.20100
C834        C  0.73185463  0.46224735  0.59465817     0.25100
C835        C  0.77246924  0.46537729  0.60301239    -0.22900
C836        C  0.79335078  0.47682224  0.64501114     0.20000
F837        F  0.83241533  0.48109837  0.65372227    -0.12900
F838        F  0.79593761  0.48904726  0.72079601    -0.15200
F839        F  0.71057304  0.45138169  0.55468515    -0.15200
F840        F  0.67445304  0.46082404  0.62110340    -0.12900
In841      In  0.67646018  0.96330791  0.77094574     1.36900
C842        C  0.71629343  0.97077634  0.70958626     0.79100
O843        O  0.72976057  0.94302348  0.81716857    -0.59300
O844        O  0.68033485  0.91142705  0.80076748    -0.50200
C845        C  0.65657499  0.50412073  0.82905481     0.71800
O846        O  0.68521141  0.50979526  0.81245207    -0.45100
C847        C  0.61215504  0.96490993  0.70737401     0.76500
O848        O  0.71898943  0.99193079  0.74037880    -0.56900
O849        O  0.62361597  0.93836934  0.72908968    -0.47000
O850        O  0.69550037  0.94562391  0.71230942    -0.53400
C851        C  0.71534508  0.91477042  0.82197043     0.86700
O852        O  0.63882651  0.97714934  0.81659007    -0.55300
O853        O  0.63235525  0.99056731  0.72064927    -0.58600
In854      In  0.82329241  0.90470368  0.52807020     1.36900
C855        C  0.79317435  0.94877706  0.57309525     0.79100
O856        O  0.78237138  0.87516529  0.55642168    -0.59300
O857        O  0.84207088  0.86257255  0.57837686    -0.50200
C858        C  0.79334792  0.87003140  0.45473353     0.71800
O859        O  0.77918237  0.89752280  0.46293605    -0.45100
C860        C  0.88713741  0.93592622  0.51655613     0.76500
O861        O  0.77775955  0.94251404  0.53261165    -0.56900
O862        O  0.88819616  0.91157460  0.54314050    -0.47000
O863        O  0.82602224  0.93566167  0.58806523    -0.53400
C864        C  0.80752537  0.85698472  0.58117960     0.86700
O865        O  0.82478845  0.86226661  0.48188838    -0.55300
O866        O  0.85327234  0.94375094  0.49513351    -0.58600
In867      In  0.73680467  0.96893505  0.25212846     1.36900
C868        C  0.69781469  0.96115615  0.31493313     0.79100
O869        O  0.78315151  0.94499851  0.30319082    -0.59300
O870        O  0.78714876  0.99755398  0.29277068    -0.50200
C871        C  0.75914766  0.92626000  0.19735301     0.71800
O872        O  0.72809370  0.92236012  0.21002977    -0.45100
C873        C  0.70014585  0.01665333  0.19670331     0.76500
O874        O  0.69631684  0.93918602  0.28539368    -0.56900
O875        O  0.73465507  0.51982123  0.21937017    -0.47000
O876        O  0.71631121  0.98718985  0.30979715    -0.53400
C877        C  0.80114668  0.97196608  0.31517708     0.86700
O878        O  0.77824818  0.95203135  0.21245379    -0.55300
O879        O  0.68474328  0.98902322  0.20256222    -0.58600
In880      In  0.59202898  0.53683429  0.49061738     1.36900
C881        C  0.62277912  0.49020516  0.44976609     0.79100
O882        O  0.56129670  0.49943306  0.52484332    -0.59300
O883        O  0.52699615  0.53119154  0.47572467    -0.50200
C884        C  0.61993577  0.57053003  0.56480143     0.71800
O885        O  0.63420625  0.54308017  0.55671816    -0.45100
C886        C  0.60944293  0.58462870  0.43781490     0.76500
O887        O  0.63821291  0.49893073  0.48929150    -0.56900
O888        O  0.57454562  0.57693416  0.43688397    -0.47000
O889        O  0.58985612  0.50278160  0.43346130    -0.53400
C890        C  0.52760999  0.50758598  0.50336221     0.86700
O891        O  0.58939310  0.57903773  0.53658829    -0.55300
O892        O  0.63414585  0.56819554  0.46580373    -0.58600
C893        C  0.99006496  0.97046298  0.54648871     0.03800
C894        C  0.99166830  0.99018774  0.50869026     0.03800
C895        C  0.95846176  0.99181865  0.47340250    -0.16700
C896        C  0.92450449  0.97392606  0.47438680     0.03800
C897        C  0.92283428  0.95425809  0.51211628     0.03800
C898        C  0.95588247  0.95287509  0.54757592    -0.16700
H899        H  0.95478016  0.93858990  0.57713772     0.05800
H900        H  0.95948400  0.50598524  0.44372014     0.05800
In901      In  0.73697546  0.71396094  0.74794277     1.36900
C902        C  0.69528518  0.71873115  0.80776055     0.79100
O903        O  0.68382584  0.69344267  0.70092973    -0.59300
O904        O  0.73464912  0.66385825  0.71513934    -0.50200
C905        C  0.75770858  0.75799627  0.69320378     0.71800
O906        O  0.73167258  0.76386347  0.71360649    -0.45100
C907        C  0.80210273  0.71342447  0.81065914     0.76500
O908        O  0.69057156  0.73890529  0.77521697    -0.56900
O909        O  0.78864459  0.68735915  0.78935527    -0.47000
O910        O  0.71969255  0.69600585  0.80813798    -0.53400
C911        C  0.69947431  0.66637931  0.69435634     0.86700
O912        O  0.77195560  0.72908182  0.69975812    -0.55300
O913        O  0.78322101  0.73975867  0.79771573    -0.58600
In914      In  0.59028155  0.64876048  0.99348857     1.36900
C915        C  0.61672445  0.69227686  0.94331573     0.79100
O916        O  0.63304153  0.61855917  0.96945422    -0.59300
O917        O  0.57350270  0.60619710  0.94447111    -0.50200
C918        C  0.62020759  0.61497294  0.06800094     0.71800
O919        O  0.63482077  0.64240784  0.05911188    -0.45100
C920        C  0.52604513  0.67830377  0.00527642     0.76500
O921        O  0.63276448  0.68853369  0.98436107    -0.56900
O922        O  0.52523902  0.65318542  0.98047720    -0.47000
O923        O  0.58492262  0.67689880  0.93019988    -0.53400
C924        C  0.60850214  0.60016622  0.94412822     0.86700
O925        O  0.58858801  0.60736654  0.04107756    -0.55300
O926        O  0.55988839  0.68775274  0.02489324    -0.58600
In927      In  0.67785216  0.72639753  0.26759225     1.36900
C928        C  0.71732984  0.71833267  0.20600790     0.79100
O929        O  0.63164147  0.69876755  0.22067241    -0.59300
O930        O  0.62613799  0.75167453  0.22340730    -0.50200
C931        C  0.65811265  0.68239046  0.32295137     0.71800
O932        O  0.68803274  0.67890331  0.30813321    -0.45100
C933        C  0.71426863  0.77453604  0.32242076     0.76500
O934        O  0.72197632  0.69907044  0.23945198    -0.56900
O935        O  0.67879254  0.77615973  0.30239904    -0.47000
O936        O  0.69447500  0.74230840  0.20575689    -0.53400
C937        C  0.61261908  0.72447615  0.20501981     0.86700
O938        O  0.63934654  0.70881080  0.31047906    -0.55300
O939        O  0.73089212  0.74870226  0.31343640    -0.58600
In940      In  0.82506989  0.78540659  0.02584972     1.36900
C941        C  0.79609151  0.74030008  0.07139362     0.79100
O942        O  0.85311916  0.74630772  0.99167862    -0.59300
O943        O  0.88947394  0.77724718  0.03991049    -0.50200
C944        C  0.79719395  0.81867423  0.95068817     0.71800
O945        O  0.78224463  0.79154982  0.95986923    -0.45100
C946        C  0.80817306  0.83341920  0.07811373     0.76500
O947        O  0.77973478  0.74741129  0.03131993    -0.56500
O948        O  0.84294632  0.82735914  0.07677104    -0.47000
O949        O  0.82912900  0.75343946  0.08564071    -0.53400
C950        C  0.88727765  0.75309112  0.01318787     0.86700
O951        O  0.82807645  0.82698251  0.97851207    -0.55300
O952        O  0.78338495  0.81556072  0.05228385    -0.58600
C953        C  0.92390904  0.71379542  0.97220323     0.03800
C954        C  0.92206867  0.73351667  0.00952327     0.03800
C955        C  0.95417097  0.73362188  0.04616408    -0.16700
C956        C  0.98803727  0.71555121  0.04651910     0.03800
C957        C  0.99008578  0.69597891  0.00923189     0.03800
C958        C  0.95753389  0.69505987  0.97292693    -0.16700
H959        H  0.95898857  0.68084427  0.94374303     0.05800
H960        H  0.95273037  0.74771815  0.07545207     0.05800
C961        C  0.56359448  0.75150608  0.14272399     0.25100
C962        C  0.57878078  0.72250192  0.16642145    -0.23000
C963        C  0.56342087  0.69107237  0.15060386     0.20100
C964        C  0.53405816  0.68871887  0.11155029     0.25100
C965        C  0.52004516  0.71761676  0.08710306    -0.22900
C966        C  0.53466873  0.74902762  0.10329148     0.20000
F967        F  0.52117145  0.77737328  0.08046184    -0.12900
F968        F  0.57736494  0.78225337  0.15689772    -0.15200
F969        F  0.01905972  0.65821781  0.09782846    -0.15200
F970        F  0.57682071  0.66246895  0.17280610    -0.12900
C971        C  0.71590546  0.71812755  0.12533900     0.25100
C972        C  0.73694700  0.71403109  0.16974262    -0.23000
C973        C  0.77730005  0.71017273  0.17918879     0.20100
C974        C  0.79687984  0.71460314  0.14543078     0.25100
C975        C  0.77615633  0.72269034  0.10174091    -0.22900
C976        C  0.73533350  0.72179059  0.09140888     0.20000
F977        F  0.71420856  0.72807782  0.04941713    -0.12900
F978        F  0.67659802  0.72060819  0.11516889    -0.15200
F979        F  0.83627857  0.71389839  0.15633297    -0.15200
F980        F  0.79808030  0.70574671  0.22179133    -0.12900
C981        C  0.84748019  0.68305602  0.87274818     0.25100
C982        C  0.83554133  0.71310032  0.84971671    -0.23000
C983        C  0.85349744  0.74329738  0.86681402     0.20100
C984        C  0.88224623  0.74348546  0.90658496     0.25100
C985        C  0.89279985  0.71369387  0.93060585    -0.22900
C986        C  0.87568957  0.68340634  0.91299600     0.20000
F987        F  0.88590228  0.65417394  0.93521204    -0.12900
F988        F  0.83092289  0.65344096  0.85724858    -0.15200
F989        F  0.90013074  0.77274187  0.92144950    -0.15200
F990        F  0.84329414  0.77271728  0.84507371    -0.12900
C991        C  0.69573087  0.71724231  0.88781929     0.25100
C992        C  0.67463821  0.72078255  0.84340575    -0.23000
C993        C  0.63399918  0.72129630  0.83352320     0.20100
C994        C  0.61464579  0.71539700  0.86725989     0.25100
C995        C  0.63580384  0.70900369  0.91136385    -0.22900
C996        C  0.67653776  0.71167468  0.92158682     0.20000
F997        F  0.69811617  0.70543419  0.96336710    -0.12900
F998        F  0.73516471  0.71718283  0.89813006    -0.15200
F999        F  0.57528898  0.71346996  0.85612773    -0.15200
F1000       F  0.61312044  0.72416286  0.79069933    -0.12900
C1001       C  0.67305318  0.63865236  0.38262040     0.25100
C1002       C  0.64555017  0.65751530  0.35215067    -0.23000
C1003       C  0.60584126  0.65261275  0.34998499     0.20100
C1004       C  0.59385778  0.62915280  0.37783993     0.25100
C1005       C  0.62141255  0.61023604  0.40858940    -0.22900
C1006       C  0.66123079  0.61556100  0.41083493     0.20000
F1007       F  0.68907181  0.59850113  0.44047944    -0.12900
F1008       F  0.71158048  0.64314998  0.38592643    -0.15200
F1009       F  0.55531425  0.62502238  0.37459349    -0.15200
F1010       F  0.57850700  0.66991297  0.31997978    -0.12900
C1011       C  0.69852497  0.61292351  0.65212978     0.25100
C1012       C  0.67838171  0.64006893  0.66430346    -0.23000
C1013       C  0.63799094  0.64228319  0.64643270     0.20100
C1014       C  0.61857333  0.61873655  0.61566009     0.25100
C1015       C  0.63904243  0.59237968  0.60219006    -0.22900
C1016       C  0.67909511  0.58938899  0.62139158     0.20000
F1017       F  0.70006510  0.56475081  0.60858891    -0.12900
F1018       F  0.73741432  0.60972680  0.66861348    -0.15200
F1019       F  0.57977148  0.62209682  0.59852725    -0.15200
F1020       F  0.61718032  0.66748281  0.65823468    -0.12900
C1021       C  0.75654958  0.86319303  0.10596130     0.25100
C1022       C  0.79634120  0.85846624  0.10783424    -0.23000
C1023       C  0.82384183  0.87692239  0.13923009     0.20100
C1024       C  0.81183088  0.89893310  0.16839324     0.25100
C1025       C  0.77210753  0.90286455  0.16694012    -0.22900
C1026       C  0.74471049  0.88479639  0.13537212     0.20000
F1027       F  0.70616314  0.88866306  0.13213015    -0.12900
F1028       F  0.72866412  0.84700881  0.07540268    -0.15200
F1029       F  0.83917320  0.91575807  0.19887312    -0.15200
F1030       F  0.86236689  0.87356785  0.14204998    -0.12900
C1031       C  0.64132950  0.53701174  0.14024264     0.25100
C1032       C  0.67931842  0.54293008  0.16572003    -0.23000
C1033       C  0.69697642  0.57396181  0.16083304     0.20100
C1034       C  0.67736619  0.59810565  0.13049658     0.25100
C1035       C  0.63954651  0.59184105  0.10452995    -0.22900
C1036       C  0.62169465  0.56112228  0.11036964     0.20000
F1037       F  0.58533822  0.55375478  0.08619307    -0.12900
F1038       F  0.62314573  0.00745498  0.14333535    -0.15200
F1039       F  0.69594742  0.62715539  0.12571217    -0.15200
F1040       F  0.73353519  0.58083720  0.18481495    -0.12900
C1041       C  0.85312291  0.94338221  0.37157895     0.25100
C1042       C  0.83461041  0.97322992  0.35396165    -0.23000
C1043       C  0.84635057  0.00357757  0.37595153     0.20100
C1044       C  0.87531465  0.00380736  0.41557618     0.25100
C1045       C  0.89297655  0.97380453  0.43350593    -0.22900
C1046       C  0.88225488  0.94375229  0.41078807     0.20000
F1047       F  0.90021523  0.91471289  0.42656692    -0.12900
F1048       F  0.84313616  0.91371794  0.35086004    -0.15200
F1049       F  0.88570534  0.03319634  0.43690353    -0.15200
F1050       F  0.82904406  0.03283483  0.36000771    -0.12900
C1051       C  0.64120445  0.94947070  0.34801965     0.25100
C1052       C  0.68052455  0.95766521  0.35350702    -0.23000
C1053       C  0.70224890  0.46810770  0.39549732     0.20100
C1054       C  0.68399911  0.47424610  0.42980480     0.25100
C1055       C  0.64346129  0.47101633  0.42208607    -0.22900
C1056       C  0.62262499  0.95646960  0.38201353     0.20000
F1057       F  0.58370960  0.95159373  0.37441680    -0.12900
F1058       F  0.61996081  0.93809451  0.30835204    -0.15200
F1059       F  0.70536533  0.48716291  0.46852208    -0.15200
F1060       F  0.74080210  0.47472736  0.40225325    -0.12900
C1061       C  0.80599270  0.77888365  0.65147337     0.25100
C1062       C  0.77095637  0.78312789  0.66462348    -0.23000
C1063       C  0.74898888  0.81207690  0.65091978     0.20100
C1064       C  0.76122652  0.83589864  0.62409509     0.25100
C1065       C  0.79620382  0.83178330  0.61096649    -0.22900
C1066       C  0.81869499  0.80320055  0.62526110     0.20000
F1067       F  0.85238737  0.79832637  0.61292776    -0.12900
F1068       F  0.82821472  0.75136821  0.66425700    -0.15200
F1069       F  0.73878700  0.86331120  0.61132103    -0.15200
F1070       F  0.71522454  0.81729095  0.66296516    -0.12900
C1071       C  0.79443508  0.82207718  0.40316928     0.25100
C1072       C  0.77362636  0.84748430  0.41816944    -0.23000
C1073       C  0.73313808  0.84903165  0.40092767     0.20100
C1074       C  0.71392964  0.82571215  0.36947214     0.25100
C1075       C  0.73473160  0.80026570  0.35439731    -0.22900
C1076       C  0.77531260  0.79889889  0.37154675     0.20000
F1077       F  0.79670151  0.77488612  0.35811694    -0.12900
F1078       F  0.83342083  0.81938114  0.41943450    -0.15200
F1079       F  0.67471275  0.82741532  0.35503174    -0.15200
F1080       F  0.71171217  0.87204066  0.41624042    -0.12900
C1081       C  0.59377863  0.55162249  0.89104483     0.25100
C1082       C  0.62064116  0.57436817  0.91603304    -0.23000
C1083       C  0.65973778  0.57273560  0.91341257     0.20100
C1084       C  0.67131517  0.54978167  0.88546545     0.25100
C1085       C  0.64438875  0.52745099  0.85998271    -0.22900
C1086       C  0.60559980  0.52820960  0.86359893     0.20000
F1087       F  0.57875641  0.50693560  0.83956588    -0.12900
F1088       F  0.55601169  0.55204383  0.89296524    -0.15200
F1089       F  0.70915987  0.54917675  0.88380644    -0.15200
F1090       F  0.68701642  0.59364767  0.93749776    -0.12900
C1091       C  0.72073036  0.85706013  0.85621156     0.25100
C1092       C  0.73774779  0.88821929  0.85079416    -0.23000
C1093       C  0.77634967  0.89426161  0.87442663     0.20100
C1094       C  0.79647020  0.87074729  0.90489860     0.25100
C1095       C  0.77856956  0.84051570  0.91256944    -0.22900
C1096       C  0.74092522  0.83345524  0.88675445     0.20000
F1097       F  0.72286466  0.80429205  0.89229259    -0.12900
F1098       F  0.68409536  0.84967157  0.83292757    -0.15200
F1099       F  0.83313522  0.87827184  0.92800855    -0.15200
F1100       F  0.79452694  0.92343113  0.86916981    -0.12900
C1101       C  0.53513073  0.99839440  0.61058573     0.25100
C1102       C  0.52223764  0.96908701  0.58691426    -0.23000
C1103       C  0.53762076  0.93811606  0.60417300     0.20100
C1104       C  0.56570331  0.93649019  0.64445565     0.25100
C1105       C  0.57935507  0.96594614  0.66768985    -0.22900
C1106       C  0.56374242  0.99691548  0.65033391     0.20000
F1107       F  0.57591064  0.02586405  0.67196529    -0.12900
F1108       F  0.01957706  0.02845155  0.59547886    -0.15200
F1109       F  0.58021280  0.90619359  0.65997129    -0.15200
F1110       F  0.52559513  0.90945014  0.58171850    -0.12900
C1111       C  0.77460090  0.98134116  0.67944054     0.25100
C1112       C  0.73481896  0.97448364  0.67218724    -0.23000
C1113       C  0.71328508  0.96653830  0.62910827     0.20100
C1114       C  0.73185463  0.96224713  0.59465867     0.25100
C1115       C  0.77246924  0.96537707  0.60301288    -0.22900
C1116       C  0.79335082  0.97682181  0.64501173     0.20000
F1117       F  0.83241539  0.98109781  0.65372294    -0.12900
F1118       F  0.79593768  0.98904653  0.72079669    -0.15200
F1119       F  0.71057302  0.95138151  0.55468564    -0.15200
F1120       F  0.67445303  0.96082385  0.62110386    -0.12900
loop_ 
_geom_bond_atom_site_label_1 
_geom_bond_atom_site_label_2 
_geom_bond_distance 
_geom_bond_site_symmetry_2 
_ccdc_geom_bond_type 
In1           O3   2.230       .  S
In1           O4   2.257       .  S
In1          O12   2.245       .  S
In1           O8   2.269       .  S
In1           O9   2.239       .  S
In1          O10   2.210       .  S
In1          O13   2.209       .  S
In1         O286   2.247       .  S
C2            O8   1.267       .  A
C2           O10   1.259       .  A
C2          C272   1.472       .  S
O3           C11   1.261       .  A
O4           C11   1.264       .  A
C5            O6   1.265       .  A
C5          O292   1.261   1_545  A
C5          C245   1.483       .  S
O6         In281   2.247   1_545  S
C7            O9   1.267       .  A
C7           O13   1.262       .  A
C7          C265   1.474       .  S
C11         C252   1.486       .  S
O12         C285   1.261       .  A
In14         O16   2.206       .  S
In14         O17   2.276       .  S
In14         O25   2.239       .  S
In14         O19   2.253       .  S
In14         O21   2.252       .  S
In14         O22   2.254       .  S
In14         O23   2.225       .  S
In14         O26   2.258       .  S
C15          O21   1.267       .  A
C15          O23   1.262       .  A
C15         C275   1.480       .  S
O16          C24   1.257       .  A
O17          C24   1.269       .  A
C18          O25   1.263       .  A
C18          O19   1.266       .  A
C18         C232   1.487       .  S
C20          O22   1.266       .  A
C20          O26   1.264       .  A
C20          C57   1.495       .  S
C24         C225   1.480       .  S
In27         O29   2.204       .  S
In27         O30   2.236       .  S
In27         O38   2.246       .  S
In27         O32   2.260       .  S
In27         O34   2.286       .  S
In27         O36   2.218       .  S
In27         O39   2.245       .  S
In27        O315   2.261       .  S
C28          O34   1.266       .  A
C28          O36   1.258       .  A
C28         C212   1.476       .  S
O29          C37   1.262       .  A
O30          C37   1.267       .  A
C31          O38   1.260       .  A
C31          O32   1.266       .  A
C31         C185   1.486       .  S
C33          O39   1.262       .  A
C33         O315   1.262       .  A
C33         C472   1.491       .  S
O35        In307   2.261   1_545  S
O35         C313   1.262       .  A
C37         C202   1.471       .  S
In40         O42   2.252   1_545  S
In40         O43   2.253       .  S
In40         O51   2.236       .  S
In40         O45   2.239       .  S
In40         O47   2.249   1_545  S
In40         O48   2.280       .  S
In40         O49   2.230       .  S
In40         O52   2.219       .  S
C41          O47   1.265       .  A
C41          O49   1.262   1_565  A
C41         C215   1.480       .  S
O42          C50   1.263   1_565  A
O43          C50   1.266       .  A
C44          O51   1.263       .  A
C44          O45   1.265       .  A
C44         C175   1.481       .  S
C46          O48   1.269       .  A
C46          O52   1.258       .  A
C46         C165   1.489       .  S
C50         C894   1.494   1_445  S
C53         C822   1.477       .  S
C53          C54   1.419       .  A
C53          C58   1.407       .  A
C54         C890   1.494       .  S
C54          C55   1.401       .  A
C55          C56   1.405       .  A
C55         H340   1.084       .  S
C56         C205   1.473       .  S
C56          C57   1.417       .  A
C57          C58   1.400       .  A
C58          H59   1.084       .  S
H60         C335   1.084   1_545  S
In61         O63   2.241       .  S
In61         O64   2.248       .  S
In61         O72   2.240       .  S
In61         O66   2.242       .  S
In61         O68   2.267       .  S
In61         O69   2.237       .  S
In61         O70   2.214       .  S
In61         O73   2.217       .  S
C62          O68   1.266       .  A
C62          O70   1.258       .  A
C62         C152   1.470       .  S
O63          C71   1.261       .  A
O64          C71   1.263       .  A
C65          O72   1.261       .  A
C65          O66   1.265       .  A
C65         C222   1.483       .  S
C67          O69   1.266       .  A
C67          O73   1.262       .  A
C67         C142   1.475       .  S
C71         C172   1.485       .  S
In74         O76   2.216       .  S
In74         O77   2.270       .  S
In74         O85   2.219   1_556  S
In74         O79   2.266   1_556  S
In74         O81   2.250       .  S
In74         O82   2.254       .  S
In74         O83   2.221       .  S
In74         O86   2.260   1_556  S
C75          O81   1.269       .  A
C75          O83   1.262       .  A
C75         C155   1.482       .  S
O76          C84   1.259       .  A
O77          C84   1.271       .  A
C78          O85   1.263       .  A
C78          O79   1.268       .  A
C78         C195   1.491       .  S
C80          O82   1.266   1_554  A
C80          O86   1.265       .  A
C80         C677   1.495   1_455  S
C84         C242   1.488       .  S
In87         O89   2.207       .  S
In87         O90   2.247       .  S
In87         O98   2.234       .  S
In87         O92   2.251       .  S
In87         O94   2.262       .  S
In87         O95   2.269       .  S
In87         O96   2.225       .  S
In87         O99   2.250       .  S
C88          O94   1.265       .  A
C88          O96   1.259       .  A
C88         C132   1.471       .  S
O89          C97   1.261       .  A
O90          C97   1.269       .  A
C91          O98   1.260       .  A
C91          O92   1.265       .  A
C91         C162   1.478       .  S
C93          O95   1.264       .  A
C93          O99   1.260       .  A
C93         C235   1.492       .  S
C97         C122   1.477       .  S
In100       O102   2.263   1_554  S
In100       O103   2.248       .  S
In100       O111   2.228   1_554  S
In100       O105   2.244   1_554  S
In100       O107   2.243       .  S
In100       O108   2.292       .  S
In100       O109   2.219       .  S
In100       O112   2.225       .  S
C101        O107   1.267       .  A
C101        O109   1.262       .  A
C101        C135   1.480       .  S
O102        C110   1.263   1_556  A
O103        C110   1.268       .  A
C104        O111   1.264       .  A
C104        O105   1.266       .  A
C104        C255   1.485       .  S
C106        O108   1.271       .  A
C106        O112   1.259       .  A
C106        C182   1.496       .  S
C110        C114   1.495       .  S
C113        C145   1.480       .  S
C113        C114   1.420   1_556  A
C113        C118   1.410       .  A
C114        C115   1.400       .  A
C115        C116   1.405       .  A
C115        H120   1.085       .  S
C116        C685   1.478       .  S
C116        C117   1.418       .  A
C117        C640   1.495       .  S
C117        C118   1.404   1_554  A
C118        H119   1.084       .  S
C121        C122   1.406       .  A
C121        C126   1.396       .  A
C121        F128   1.358       .  S
C122        C123   1.411       .  A
C123        C124   1.396       .  A
C123        F130   1.358       .  S
C124        C125   1.403       .  A
C124        F689   1.358       .  S
C125        C676   1.478   1_455  S
C125        C126   1.406       .  A
C126        F127   1.358       .  S
F129        C684   1.358       .  S
C131        C132   1.406       .  A
C131        C136   1.397       .  A
C131        F138   1.359       .  S
C132        C133   1.401       .  A
C133        C134   1.400       .  A
C133        F140   1.357       .  S
C134        C135   1.411       .  A
C134        F139   1.358       .  S
C135        C136   1.407       .  A
C136        F137   1.357       .  S
C141        C142   1.407       .  A
C141        C146   1.397       .  A
C141        F148   1.358       .  S
C142        C143   1.409       .  A
C143        C144   1.396       .  A
C143        F150   1.358       .  S
C144        C145   1.404       .  A
C144        F149   1.358       .  S
C145        C146   1.406       .  A
C146        F147   1.358       .  S
C151        C152   1.404       .  A
C151        C156   1.397       .  A
C151        F158   1.359       .  S
C152        C153   1.401       .  A
C153        C154   1.402       .  A
C153        F160   1.358       .  S
C154        C155   1.412       .  A
C154        F159   1.358       .  S
C155        C156   1.407       .  A
C156        F157   1.356       .  S
C161        C162   1.401       .  A
C161        C166   1.398       .  A
C161        F168   1.358       .  S
C162        C163   1.408       .  A
C163        C164   1.403       .  A
C163        F170   1.358       .  S
C164        C165   1.408       .  A
C164        F169   1.357       .  S
C165        C166   1.414       .  A
C166        F167   1.358       .  S
C171        C172   1.408       .  A
C171        C176   1.399       .  A
C171        F178   1.358       .  S
C172        C173   1.410       .  A
C173        C174   1.400       .  A
C173        F180   1.358       .  S
C174        C175   1.407       .  A
C174        F179   1.358       .  S
C175        C176   1.408       .  A
C176        F177   1.358       .  S
C181        C182   1.414       .  A
C181        C186   1.400       .  A
C181        F188   1.358       .  S
C182        C183   1.409       .  A
C183        C184   1.407       .  A
C183        F190   1.357       .  S
C184        C185   1.410       .  A
C184        F189   1.358       .  S
C185        C186   1.402       .  A
C186        F187   1.358       .  S
C191        C192   1.407       .  A
C191        C196   1.398       .  A
C191        F478   1.358       .  S
C192        C313   1.491       .  S
C192        C193   1.411       .  A
C193        C194   1.406       .  A
C193        F200   1.358       .  S
C194        C195   1.410       .  A
C194        F199   1.358       .  S
C195        C196   1.410       .  A
C196        F197   1.358       .  S
F198        C471   1.358       .  S
C201        C202   1.408       .  A
C201        C206   1.391       .  A
C201        F208   1.358       .  S
C202        C203   1.408       .  A
C203        C204   1.397       .  A
C203        F210   1.358       .  S
C204        C205   1.404       .  A
C204        F209   1.358       .  S
C205        C206   1.402       .  A
C206        F207   1.358       .  S
C211        C212   1.402       .  A
C211        C216   1.403       .  A
C211        F218   1.357       .  S
C212        C493   1.407       .  A
C213        C214   1.397       .  A
C213        C492   1.407       .  A
C213        F220   1.359       .  S
C214        C215   1.406       .  A
C214        F219   1.358       .  S
C215        C496   1.410       .  A
C216        C495   1.410       .  A
C216        F217   1.358       .  S
C221        C222   1.412       .  A
C221        C226   1.404       .  A
C221        F228   1.358       .  S
C222        C223   1.405       .  A
C223        C224   1.395       .  A
C223        F230   1.358       .  S
C224        C225   1.409       .  A
C224        F229   1.358       .  S
C225        C226   1.405       .  A
C226        F227   1.358       .  S
C231        C232   1.407       .  A
C231        C236   1.402       .  A
C231        F238   1.358       .  S
C232        C233   1.409       .  A
C233        C234   1.404       .  A
C233        F240   1.358       .  S
C234        C235   1.410       .  A
C234        F239   1.357       .  S
C235        C236   1.411       .  A
C236        F237   1.358       .  S
C241        C242   1.407       .  A
C241        C246   1.404       .  A
C241        F248   1.357       .  S
C242        C243   1.413       .  A
C243        C244   1.398       .  A
C243        F250   1.358       .  S
C244        C245   1.404       .  A
C244        F249   1.358       .  S
C245        C246   1.410       .  A
C246        F247   1.358       .  S
C251        C252   1.409       .  A
C251        C256   1.402       .  A
C251        F258   1.358       .  S
C252        C253   1.409       .  A
C253        C254   1.397       .  A
C253        F260   1.358       .  S
C254        C255   1.408       .  A
C254        F259   1.358       .  S
C255        C256   1.409       .  A
C256        F257   1.358       .  S
C261        C262   1.403       .  A
C261        C266   1.394       .  A
C261        F828   1.358       .  S
C262        C613   1.477   1_455  S
C262        C263   1.406       .  A
C263        C264   1.397       .  A
C263        F270   1.358       .  S
C264        C265   1.407       .  A
C264        F269   1.358       .  S
C265        C266   1.409       .  A
C266        F267   1.358       .  S
F268        C821   1.358       .  S
C271        C272   1.401       .  A
C271        C276   1.402       .  A
C271        F278   1.357       .  S
C272        C273   1.405       .  A
C273        C274   1.397       .  A
C273        F280   1.359       .  S
C274        C275   1.407       .  A
C274        F279   1.358       .  S
C275        C276   1.411       .  A
C276        F277   1.358       .  S
In281       O283   2.230       .  S
In281       O284   2.257       .  S
In281       O292   2.245       .  S
In281       O288   2.269       .  S
In281       O289   2.239       .  S
In281       O290   2.210       .  S
In281       O293   2.209       .  S
C282        O288   1.267       .  A
C282        O290   1.259       .  A
C282        C552   1.472       .  S
O283        C291   1.261       .  A
O284        C291   1.264       .  A
C285        O286   1.265       .  A
C285        C525   1.483       .  S
C287        O289   1.267       .  A
C287        O293   1.262       .  A
C287        C545   1.474       .  S
C291        C532   1.486       .  S
In294       O296   2.206       .  S
In294       O297   2.276       .  S
In294       O305   2.239       .  S
In294       O299   2.253       .  S
In294       O301   2.252       .  S
In294       O302   2.254       .  S
In294       O303   2.225       .  S
In294       O306   2.258       .  S
C295        O301   1.267       .  A
C295        O303   1.262       .  A
C295        C555   1.480       .  S
O296        C304   1.257       .  A
O297        C304   1.269       .  A
C298        O305   1.263       .  A
C298        O299   1.266       .  A
C298        C512   1.487       .  S
C300        O302   1.266       .  A
C300        O306   1.264       .  A
C300        C337   1.495       .  S
C304        C505   1.480       .  S
In307       O309   2.204       .  S
In307       O310   2.236       .  S
In307       O318   2.246       .  S
In307       O312   2.260       .  S
In307       O314   2.286       .  S
In307       O316   2.218       .  S
In307       O319   2.245       .  S
C308        O314   1.266       .  A
C308        O316   1.258       .  A
C308        C492   1.476       .  S
O309        C317   1.262       .  A
O310        C317   1.267       .  A
C311        O318   1.260       .  A
C311        O312   1.266       .  A
C311        C465   1.486       .  S
C313        O319   1.262   1_545  A
C317        C482   1.471       .  S
In320       O322   2.252       .  S
In320       O323   2.253       .  S
In320       O331   2.236       .  S
In320       O325   2.239       .  S
In320       O327   2.249       .  S
In320       O328   2.280       .  S
In320       O329   2.230       .  S
In320       O332   2.219       .  S
C321        O327   1.265       .  A
C321        O329   1.262       .  A
C321        C495   1.480       .  S
O322        C330   1.263       .  A
O323        C330   1.266       .  A
C324        O331   1.263       .  A
C324        O325   1.265       .  A
C324        C455   1.481       .  S
C326        O328   1.269       .  A
C326        O332   1.258       .  A
C326        C445   1.489       .  S
C330        C614   1.494   1_455  S
C333       C1102   1.477       .  S
C333        C334   1.419       .  A
C333        C338   1.407       .  A
C334        C610   1.494   1_565  S
C334        C335   1.401       .  A
C335        C336   1.405       .  A
C336        C485   1.473       .  S
C336        C337   1.417       .  A
C337        C338   1.400       .  A
C338        H339   1.084       .  S
In341       O343   2.241       .  S
In341       O344   2.248       .  S
In341       O352   2.240       .  S
In341       O346   2.242       .  S
In341       O348   2.267       .  S
In341       O349   2.237       .  S
In341       O350   2.214       .  S
In341       O353   2.217       .  S
C342        O348   1.266       .  A
C342        O350   1.258       .  A
C342        C432   1.470       .  S
O343        C351   1.261       .  A
O344        C351   1.263       .  A
C345        O352   1.261       .  A
C345        O346   1.265       .  A
C345        C502   1.483       .  S
C347        O349   1.266       .  A
C347        O353   1.262       .  A
C347        C422   1.475       .  S
C351        C452   1.485       .  S
In354       O356   2.216       .  S
In354       O357   2.270       .  S
In354       O365   2.219   1_556  S
In354       O359   2.266   1_556  S
In354       O361   2.250       .  S
In354       O362   2.254       .  S
In354       O363   2.221       .  S
In354       O366   2.260   1_556  S
C355        O361   1.269       .  A
C355        O363   1.262       .  A
C355        C435   1.482       .  S
O356        C364   1.259       .  A
O357        C364   1.271       .  A
C358        O365   1.263       .  A
C358        O359   1.268       .  A
C358        C475   1.491       .  S
C360        O362   1.266   1_554  A
C360        O366   1.265       .  A
C360        C957   1.495   1_455  S
C364        C522   1.488       .  S
In367       O369   2.207       .  S
In367       O370   2.247       .  S
In367       O378   2.234       .  S
In367       O372   2.251       .  S
In367       O374   2.262       .  S
In367       O375   2.269       .  S
In367       O376   2.225       .  S
In367       O379   2.250       .  S
C368        O374   1.265       .  A
C368        O376   1.259       .  A
C368        C412   1.471       .  S
O369        C377   1.261       .  A
O370        C377   1.269       .  A
C371        O378   1.260       .  A
C371        O372   1.265       .  A
C371        C442   1.478       .  S
C373        O375   1.264       .  A
C373        O379   1.260       .  A
C373        C515   1.492       .  S
C377        C402   1.477       .  S
In380       O382   2.263   1_554  S
In380       O383   2.248       .  S
In380       O391   2.228   1_554  S
In380       O385   2.244   1_554  S
In380       O387   2.243       .  S
In380       O388   2.292       .  S
In380       O389   2.219       .  S
In380       O392   2.225       .  S
C381        O387   1.267       .  A
C381        O389   1.262       .  A
C381        C415   1.480       .  S
O382        C390   1.263   1_556  A
O383        C390   1.268       .  A
C384        O391   1.264       .  A
C384        O385   1.266       .  A
C384        C535   1.485       .  S
C386        O388   1.271       .  A
C386        O392   1.259       .  A
C386        C462   1.496       .  S
C390        C394   1.495       .  S
C393        C425   1.480       .  S
C393        C394   1.420   1_556  A
C393        C398   1.410       .  A
C394        C395   1.400       .  A
C395        C396   1.405       .  A
C395        H400   1.085       .  S
C396        C965   1.478       .  S
C396        C397   1.418       .  A
C397        C920   1.495       .  S
C397        C398   1.404   1_554  A
C398        H399   1.084       .  S
C401        C402   1.406       .  A
C401        C406   1.396       .  A
C401        F408   1.358       .  S
C402        C403   1.411       .  A
C403        C404   1.396       .  A
C403        F410   1.358       .  S
C404        C405   1.403       .  A
C404        F969   1.358       .  S
C405        C956   1.478   1_455  S
C405        C406   1.406       .  A
C406        F407   1.358       .  S
F409        C964   1.358       .  S
C411        C412   1.406       .  A
C411        C416   1.397       .  A
C411        F418   1.359       .  S
C412        C413   1.401       .  A
C413        C414   1.400       .  A
C413        F420   1.357       .  S
C414        C415   1.411       .  A
C414        F419   1.358       .  S
C415        C416   1.407       .  A
C416        F417   1.357       .  S
C421        C422   1.407       .  A
C421        C426   1.397       .  A
C421        F428   1.358       .  S
C422        C423   1.409       .  A
C423        C424   1.396       .  A
C423        F430   1.358       .  S
C424        C425   1.404       .  A
C424        F429   1.358       .  S
C425        C426   1.406       .  A
C426        F427   1.358       .  S
C431        C432   1.404       .  A
C431        C436   1.397       .  A
C431        F438   1.359       .  S
C432        C433   1.401       .  A
C433        C434   1.402       .  A
C433        F440   1.358       .  S
C434        C435   1.412       .  A
C434        F439   1.358       .  S
C435        C436   1.407       .  A
C436        F437   1.356       .  S
C441        C442   1.401       .  A
C441        C446   1.398       .  A
C441        F448   1.358       .  S
C442        C443   1.408       .  A
C443        C444   1.403       .  A
C443        F450   1.358       .  S
C444        C445   1.408       .  A
C444        F449   1.357       .  S
C445        C446   1.414       .  A
C446        F447   1.358       .  S
C451        C452   1.408       .  A
C451        C456   1.399       .  A
C451        F458   1.358       .  S
C452        C453   1.410       .  A
C453        C454   1.400       .  A
C453        F460   1.358       .  S
C454        C455   1.407       .  A
C454        F459   1.358       .  S
C455        C456   1.408       .  A
C456        F457   1.358       .  S
C461        C462   1.414       .  A
C461        C466   1.400       .  A
C461        F468   1.358       .  S
C462        C463   1.409       .  A
C463        C464   1.407       .  A
C463        F470   1.357       .  S
C464        C465   1.410       .  A
C464        F469   1.358       .  S
C465        C466   1.402       .  A
C466        F467   1.358       .  S
C471        C472   1.407       .  A
C471        C476   1.398       .  A
C472        C473   1.411       .  A
C473        C474   1.406       .  A
C473        F480   1.358       .  S
C474        C475   1.410       .  A
C474        F479   1.358       .  S
C475        C476   1.410       .  A
C476        F477   1.358       .  S
C481        C482   1.408       .  A
C481        C486   1.391       .  A
C481        F488   1.358       .  S
C482        C483   1.408   1_565  A
C483        C484   1.397       .  A
C483        F490   1.358       .  S
C484        C485   1.404   1_545  A
C484        F489   1.358       .  S
C485        C486   1.402       .  A
C486        F487   1.358       .  S
C491        C492   1.402       .  A
C491        C496   1.403       .  A
C491        F498   1.357       .  S
C493        C494   1.397       .  A
C493        F500   1.359       .  S
C494        C495   1.406       .  A
C494        F499   1.358       .  S
C496        F497   1.358       .  S
C501        C502   1.412       .  A
C501        C506   1.404       .  A
C501        F508   1.358       .  S
C502        C503   1.405       .  A
C503        C504   1.395       .  A
C503        F510   1.358       .  S
C504        C505   1.409       .  A
C504        F509   1.358       .  S
C505        C506   1.405       .  A
C506        F507   1.358       .  S
C511        C512   1.407       .  A
C511        C516   1.402       .  A
C511        F518   1.358       .  S
C512        C513   1.409       .  A
C513        C514   1.404       .  A
C513        F520   1.358       .  S
C514        C515   1.410       .  A
C514        F519   1.357       .  S
C515        C516   1.411       .  A
C516        F517   1.358       .  S
C521        C522   1.407       .  A
C521        C526   1.404       .  A
C521        F528   1.357       .  S
C522        C523   1.413       .  A
C523        C524   1.398       .  A
C523        F530   1.358       .  S
C524        C525   1.404       .  A
C524        F529   1.358       .  S
C525        C526   1.410       .  A
C526        F527   1.358       .  S
C531        C532   1.409       .  A
C531        C536   1.402       .  A
C531        F538   1.358       .  S
C532        C533   1.409       .  A
C533        C534   1.397       .  A
C533        F540   1.358       .  S
C534        C535   1.408       .  A
C534        F539   1.358       .  S
C535        C536   1.409       .  A
C536        F537   1.358       .  S
C541        C542   1.403       .  A
C541        C546   1.394       .  A
C541       F1108   1.358   1_565  S
C542        C893   1.477   1_455  S
C542        C543   1.406       .  A
C543        C544   1.397       .  A
C543        F550   1.358       .  S
C544        C545   1.407       .  A
C544        F549   1.358       .  S
C545        C546   1.409       .  A
C546        F547   1.358   1_565  S
F548       C1101   1.358   1_545  S
C551        C552   1.401       .  A
C551        C556   1.402       .  A
C551        F558   1.357       .  S
C552        C553   1.405       .  A
C553        C554   1.397       .  A
C553        F560   1.359       .  S
C554        C555   1.407       .  A
C554        F559   1.358       .  S
C555        C556   1.411       .  A
C556        F557   1.358       .  S
In561       O563   2.230       .  S
In561       O564   2.257       .  S
In561       O572   2.245       .  S
In561       O846   2.247       .  S
In561       O568   2.269       .  S
In561       O569   2.239       .  S
In561       O570   2.210       .  S
In561       O573   2.209       .  S
C562        O568   1.267       .  A
C562        O570   1.259       .  A
C562        C832   1.472       .  S
O563        C571   1.261       .  A
O564        C571   1.264       .  A
C565        O852   1.261   1_545  A
C565        O566   1.265       .  A
C565        C805   1.483       .  S
O566       In841   2.247   1_545  S
C567        O569   1.267       .  A
C567        O573   1.262       .  A
C567        C825   1.474       .  S
C571        C812   1.486       .  S
O572        C845   1.261       .  A
In574       O576   2.206       .  S
In574       O577   2.276       .  S
In574       O585   2.239       .  S
In574       O579   2.253       .  S
In574       O581   2.252       .  S
In574       O582   2.254       .  S
In574       O583   2.225       .  S
In574       O586   2.258       .  S
C575        O581   1.267       .  A
C575        O583   1.262       .  A
C575        C835   1.480       .  S
O576        C584   1.257       .  A
O577        C584   1.269       .  A
C578        O585   1.263       .  A
C578        O579   1.266       .  A
C578        C792   1.487       .  S
C580        O582   1.266       .  A
C580        O586   1.264       .  A
C580        C617   1.495       .  S
C584        C785   1.480       .  S
In587       O589   2.204       .  S
In587       O590   2.236       .  S
In587       O598   2.246       .  S
In587       O592   2.260       .  S
In587       O594   2.286       .  S
In587       O875   2.261       .  S
In587       O596   2.218       .  S
In587       O599   2.245       .  S
C588        O594   1.266       .  A
C588        O596   1.258       .  A
C588        C772   1.476       .  S
O589        C597   1.262       .  A
O590        C597   1.267       .  A
C591        O598   1.260       .  A
C591        O592   1.266       .  A
C591        C745   1.486       .  S
C593        O875   1.262       .  A
C593        O599   1.262       .  A
C593       C1032   1.491       .  S
O595       In867   2.261   1_545  S
O595        C873   1.262       .  A
C597        C762   1.471       .  S
In600       O602   2.252   1_545  S
In600       O603   2.253       .  S
In600       O611   2.236       .  S
In600       O605   2.239       .  S
In600       O607   2.249   1_545  S
In600       O608   2.280       .  S
In600       O609   2.230       .  S
In600       O612   2.219       .  S
C601        O607   1.265       .  A
C601        O609   1.262   1_565  A
C601        C775   1.480       .  S
O602        C610   1.263   1_565  A
O603        C610   1.266       .  A
C604        O611   1.263       .  A
C604        O605   1.265       .  A
C604        C735   1.481       .  S
C606        O608   1.269       .  A
C606        O612   1.258       .  A
C606        C725   1.489       .  S
C613        C614   1.419       .  A
C613        C618   1.407       .  A
C614        C615   1.401       .  A
C615        C616   1.405       .  A
C615        H900   1.084       .  S
C616        C765   1.473       .  S
C616        C617   1.417       .  A
C617        C618   1.400       .  A
C618        H619   1.084       .  S
H620        C895   1.084   1_545  S
In621       O623   2.241       .  S
In621       O624   2.248       .  S
In621       O632   2.240       .  S
In621       O626   2.242       .  S
In621       O628   2.267       .  S
In621       O629   2.237       .  S
In621       O630   2.214       .  S
In621       O633   2.217       .  S
C622        O628   1.266       .  A
C622        O630   1.258       .  A
C622        C712   1.470       .  S
O623        C631   1.261       .  A
O624        C631   1.263       .  A
C625        O632   1.261       .  A
C625        O626   1.265       .  A
C625        C782   1.483       .  S
C627        O629   1.266       .  A
C627        O633   1.262       .  A
C627        C702   1.475       .  S
C631        C732   1.485       .  S
In634       O636   2.216       .  S
In634       O637   2.270       .  S
In634       O645   2.219   1_556  S
In634       O639   2.266   1_556  S
In634       O641   2.250       .  S
In634       O642   2.254       .  S
In634       O643   2.221       .  S
In634       O646   2.260   1_556  S
C635        O641   1.269       .  A
C635        O643   1.262       .  A
C635        C715   1.482       .  S
O636        C644   1.259       .  A
O637        C644   1.271       .  A
C638        O645   1.263       .  A
C638        O639   1.268       .  A
C638        C755   1.491       .  S
C640        O642   1.266   1_554  A
C640        O646   1.265       .  A
C644        C802   1.488       .  S
In647       O649   2.207       .  S
In647       O650   2.247       .  S
In647       O658   2.234       .  S
In647       O652   2.251       .  S
In647       O654   2.262       .  S
In647       O655   2.269       .  S
In647       O656   2.225       .  S
In647       O659   2.250       .  S
C648        O654   1.265       .  A
C648        O656   1.259       .  A
C648        C692   1.471       .  S
O649        C657   1.261       .  A
O650        C657   1.269       .  A
C651        O658   1.260       .  A
C651        O652   1.265       .  A
C651        C722   1.478       .  S
C653        O655   1.264       .  A
C653        O659   1.260       .  A
C653        C795   1.492       .  S
C657        C682   1.477       .  S
In660       O662   2.263   1_554  S
In660       O663   2.248       .  S
In660       O671   2.228   1_554  S
In660       O665   2.244   1_554  S
In660       O667   2.243       .  S
In660       O668   2.292       .  S
In660       O669   2.219       .  S
In660       O672   2.225       .  S
C661        O667   1.267       .  A
C661        O669   1.262       .  A
C661        C695   1.480       .  S
O662        C670   1.263   1_556  A
O663        C670   1.268       .  A
C664        O671   1.264       .  A
C664        O665   1.266       .  A
C664        C815   1.485       .  S
C666        O668   1.271       .  A
C666        O672   1.259       .  A
C666        C742   1.496       .  S
C670        C674   1.495       .  S
C673        C705   1.480       .  S
C673        C674   1.420   1_556  A
C673        C678   1.410       .  A
C674        C675   1.400       .  A
C675        C676   1.405       .  A
C675        H680   1.085       .  S
C676        C677   1.418       .  A
C677        C678   1.404   1_554  A
C678        H679   1.084       .  S
C681        C682   1.406       .  A
C681        C686   1.396       .  A
C681        F688   1.358       .  S
C682        C683   1.411       .  A
C683        C684   1.396       .  A
C683        F690   1.358       .  S
C684        C685   1.403       .  A
C685        C686   1.406       .  A
C686        F687   1.358       .  S
C691        C692   1.406       .  A
C691        C696   1.397       .  A
C691        F698   1.359       .  S
C692        C693   1.401       .  A
C693        C694   1.400       .  A
C693        F700   1.357       .  S
C694        C695   1.411       .  A
C694        F699   1.358       .  S
C695        C696   1.407       .  A
C696        F697   1.357       .  S
C701        C702   1.407       .  A
C701        C706   1.397       .  A
C701        F708   1.358       .  S
C702        C703   1.409       .  A
C703        C704   1.396       .  A
C703        F710   1.358       .  S
C704        C705   1.404       .  A
C704        F709   1.358       .  S
C705        C706   1.406       .  A
C706        F707   1.358       .  S
C711        C712   1.404       .  A
C711        C716   1.397       .  A
C711        F718   1.359       .  S
C712        C713   1.401       .  A
C713        C714   1.402       .  A
C713        F720   1.358       .  S
C714        C715   1.412       .  A
C714        F719   1.358       .  S
C715        C716   1.407       .  A
C716        F717   1.356       .  S
C721        C722   1.401       .  A
C721        C726   1.398       .  A
C721        F728   1.358       .  S
C722        C723   1.408       .  A
C723        C724   1.403       .  A
C723        F730   1.358       .  S
C724        C725   1.408       .  A
C724        F729   1.357       .  S
C725        C726   1.414       .  A
C726        F727   1.358       .  S
C731        C732   1.408       .  A
C731        C736   1.399       .  A
C731        F738   1.358       .  S
C732        C733   1.410       .  A
C733        C734   1.400       .  A
C733        F740   1.358       .  S
C734        C735   1.407       .  A
C734        F739   1.358       .  S
C735        C736   1.408       .  A
C736        F737   1.358       .  S
C741        C742   1.414       .  A
C741        C746   1.400       .  A
C741        F748   1.358       .  S
C742        C743   1.409       .  A
C743        C744   1.407       .  A
C743        F750   1.357       .  S
C744        C745   1.410       .  A
C744        F749   1.358       .  S
C745        C746   1.402       .  A
C746        F747   1.358       .  S
C751        C752   1.407       .  A
C751        C756   1.398       .  A
C751       F1038   1.358       .  S
C752        C873   1.491       .  S
C752        C753   1.411       .  A
C753        C754   1.406       .  A
C753        F760   1.358       .  S
C754        C755   1.410       .  A
C754        F759   1.358       .  S
C755        C756   1.410       .  A
C756        F757   1.358       .  S
F758       C1031   1.358       .  S
C761        C762   1.408       .  A
C761        C766   1.391       .  A
C761        F768   1.358       .  S
C762        C763   1.408       .  A
C763        C764   1.397       .  A
C763        F770   1.358       .  S
C764        C765   1.404       .  A
C764        F769   1.358       .  S
C765        C766   1.402       .  A
C766        F767   1.358       .  S
C771        C772   1.402       .  A
C771        C776   1.403       .  A
C771        F778   1.357       .  S
C772       C1053   1.407       .  A
C773       C1052   1.407       .  A
C773        C774   1.397       .  A
C773        F780   1.359       .  S
C774        C775   1.406       .  A
C774        F779   1.358       .  S
C775       C1056   1.410       .  A
C776       C1055   1.410       .  A
C776        F777   1.358       .  S
C781        C782   1.412       .  A
C781        C786   1.404       .  A
C781        F788   1.358       .  S
C782        C783   1.405       .  A
C783        C784   1.395       .  A
C783        F790   1.358       .  S
C784        C785   1.409       .  A
C784        F789   1.358       .  S
C785        C786   1.405       .  A
C786        F787   1.358       .  S
C791        C792   1.407       .  A
C791        C796   1.402       .  A
C791        F798   1.358       .  S
C792        C793   1.409       .  A
C793        C794   1.404       .  A
C793        F800   1.358       .  S
C794        C795   1.410       .  A
C794        F799   1.357       .  S
C795        C796   1.411       .  A
C796        F797   1.358       .  S
C801        C802   1.407       .  A
C801        C806   1.404       .  A
C801        F808   1.357       .  S
C802        C803   1.413       .  A
C803        C804   1.398       .  A
C803        F810   1.358       .  S
C804        C805   1.404       .  A
C804        F809   1.358       .  S
C805        C806   1.410       .  A
C806        F807   1.358       .  S
C811        C812   1.409       .  A
C811        C816   1.402       .  A
C811        F818   1.358       .  S
C812        C813   1.409       .  A
C813        C814   1.397       .  A
C813        F820   1.358       .  S
C814        C815   1.408       .  A
C814        F819   1.358       .  S
C815        C816   1.409       .  A
C816        F817   1.358       .  S
C821        C822   1.403       .  A
C821        C826   1.394       .  A
C822        C823   1.406       .  A
C823        C824   1.397       .  A
C823        F830   1.358       .  S
C824        C825   1.407       .  A
C824        F829   1.358       .  S
C825        C826   1.409       .  A
C826        F827   1.358       .  S
C831        C832   1.401       .  A
C831        C836   1.402       .  A
C831        F838   1.357       .  S
C832        C833   1.405       .  A
C833        C834   1.397       .  A
C833        F840   1.359       .  S
C834        C835   1.407       .  A
C834        F839   1.358       .  S
C835        C836   1.411       .  A
C836        F837   1.358       .  S
In841       O843   2.230       .  S
In841       O844   2.257       .  S
In841       O852   2.245       .  S
In841       O848   2.269       .  S
In841       O849   2.239       .  S
In841       O850   2.210       .  S
In841       O853   2.209       .  S
C842        O848   1.267       .  A
C842        O850   1.259       .  A
C842       C1112   1.472       .  S
O843        C851   1.261       .  A
O844        C851   1.264       .  A
C845        O846   1.265       .  A
C845       C1085   1.483       .  S
C847        O849   1.267       .  A
C847        O853   1.262       .  A
C847       C1105   1.474       .  S
C851       C1092   1.486       .  S
In854       O856   2.206       .  S
In854       O857   2.276       .  S
In854       O865   2.239       .  S
In854       O859   2.253       .  S
In854       O861   2.252       .  S
In854       O862   2.254       .  S
In854       O863   2.225       .  S
In854       O866   2.258       .  S
C855        O861   1.267       .  A
C855        O863   1.262       .  A
C855       C1115   1.480       .  S
O856        C864   1.257       .  A
O857        C864   1.269       .  A
C858        O865   1.263       .  A
C858        O859   1.266       .  A
C858       C1072   1.487       .  S
C860        O862   1.266       .  A
C860        O866   1.264       .  A
C860        C897   1.495       .  S
C864       C1065   1.480       .  S
In867       O869   2.204       .  S
In867       O870   2.236       .  S
In867       O878   2.246       .  S
In867       O872   2.260       .  S
In867       O874   2.286       .  S
In867       O876   2.218       .  S
In867       O879   2.245       .  S
C868        O874   1.266       .  A
C868        O876   1.258       .  A
C868       C1052   1.476       .  S
O869        C877   1.262       .  A
O870        C877   1.267       .  A
C871        O878   1.260       .  A
C871        O872   1.266       .  A
C871       C1025   1.486       .  S
C873        O879   1.262   1_545  A
C877       C1042   1.471       .  S
In880       O882   2.252       .  S
In880       O883   2.253       .  S
In880       O891   2.236       .  S
In880       O885   2.239       .  S
In880       O887   2.249       .  S
In880       O888   2.280       .  S
In880       O889   2.230       .  S
In880       O892   2.219       .  S
C881        O887   1.265       .  A
C881        O889   1.262       .  A
C881       C1055   1.480       .  S
O882        C890   1.263       .  A
O883        C890   1.266       .  A
C884        O891   1.263       .  A
C884        O885   1.265       .  A
C884       C1015   1.481       .  S
C886        O888   1.269       .  A
C886        O892   1.258       .  A
C886       C1005   1.489       .  S
C893        C894   1.419       .  A
C893        C898   1.407       .  A
C894        C895   1.401       .  A
C895        C896   1.405       .  A
C896       C1045   1.473       .  S
C896        C897   1.417       .  A
C897        C898   1.400       .  A
C898        H899   1.084       .  S
In901       O903   2.241       .  S
In901       O904   2.248       .  S
In901       O912   2.240       .  S
In901       O906   2.242       .  S
In901       O908   2.267       .  S
In901       O909   2.237       .  S
In901       O910   2.214       .  S
In901       O913   2.217       .  S
C902        O908   1.266       .  A
C902        O910   1.258       .  A
C902        C992   1.470       .  S
O903        C911   1.261       .  A
O904        C911   1.263       .  A
C905        O912   1.261       .  A
C905        O906   1.265       .  A
C905       C1062   1.483       .  S
C907        O909   1.266       .  A
C907        O913   1.262       .  A
C907        C982   1.475       .  S
C911       C1012   1.485       .  S
In914       O916   2.216       .  S
In914       O917   2.270       .  S
In914       O925   2.219   1_556  S
In914       O919   2.266   1_556  S
In914       O921   2.250       .  S
In914       O922   2.254       .  S
In914       O923   2.221       .  S
In914       O926   2.260   1_556  S
C915        O921   1.269       .  A
C915        O923   1.262       .  A
C915        C995   1.482       .  S
O916        C924   1.259       .  A
O917        C924   1.271       .  A
C918        O925   1.263       .  A
C918        O919   1.268       .  A
C918       C1035   1.491       .  S
C920        O922   1.266   1_554  A
C920        O926   1.265       .  A
C924       C1082   1.488       .  S
In927       O929   2.207       .  S
In927       O930   2.247       .  S
In927       O938   2.234       .  S
In927       O932   2.251       .  S
In927       O934   2.262       .  S
In927       O935   2.269       .  S
In927       O936   2.225       .  S
In927       O939   2.250       .  S
C928        O934   1.265       .  A
C928        O936   1.259       .  A
C928        C972   1.471       .  S
O929        C937   1.261       .  A
O930        C937   1.269       .  A
C931        O938   1.260       .  A
C931        O932   1.265       .  A
C931       C1002   1.478       .  S
C933        O935   1.264       .  A
C933        O939   1.260       .  A
C933       C1075   1.492       .  S
C937        C962   1.477       .  S
In940       O942   2.263   1_554  S
In940       O943   2.248       .  S
In940       O951   2.228   1_554  S
In940       O945   2.244   1_554  S
In940       O947   2.243       .  S
In940       O948   2.292       .  S
In940       O949   2.219       .  S
In940       O952   2.225       .  S
C941        O947   1.267       .  A
C941        O949   1.262       .  A
C941        C975   1.480       .  S
O942        C950   1.263   1_556  A
O943        C950   1.268       .  A
C944        O951   1.264       .  A
C944        O945   1.266       .  A
C944       C1095   1.485       .  S
C946        O948   1.271       .  A
C946        O952   1.259       .  A
C946       C1022   1.496       .  S
C950        C954   1.495       .  S
C953        C985   1.480       .  S
C953        C954   1.420   1_556  A
C953        C958   1.410       .  A
C954        C955   1.400       .  A
C955        C956   1.405       .  A
C955        H960   1.085       .  S
C956        C957   1.418       .  A
C957        C958   1.404   1_554  A
C958        H959   1.084       .  S
C961        C962   1.406       .  A
C961        C966   1.396       .  A
C961        F968   1.358       .  S
C962        C963   1.411       .  A
C963        C964   1.396       .  A
C963        F970   1.358       .  S
C964        C965   1.403       .  A
C965        C966   1.406       .  A
C966        F967   1.358       .  S
C971        C972   1.406       .  A
C971        C976   1.397       .  A
C971        F978   1.359       .  S
C972        C973   1.401       .  A
C973        C974   1.400       .  A
C973        F980   1.357       .  S
C974        C975   1.411       .  A
C974        F979   1.358       .  S
C975        C976   1.407       .  A
C976        F977   1.357       .  S
C981        C982   1.407       .  A
C981        C986   1.397       .  A
C981        F988   1.358       .  S
C982        C983   1.409       .  A
C983        C984   1.396       .  A
C983        F990   1.358       .  S
C984        C985   1.404       .  A
C984        F989   1.358       .  S
C985        C986   1.406       .  A
C986        F987   1.358       .  S
C991        C992   1.404       .  A
C991        C996   1.397       .  A
C991        F998   1.359       .  S
C992        C993   1.401       .  A
C993        C994   1.402       .  A
C993       F1000   1.358       .  S
C994        C995   1.412       .  A
C994        F999   1.358       .  S
C995        C996   1.407       .  A
C996        F997   1.356       .  S
C1001      C1002   1.401       .  A
C1001      C1006   1.398       .  A
C1001      F1008   1.358       .  S
C1002      C1003   1.408       .  A
C1003      C1004   1.403       .  A
C1003      F1010   1.358       .  S
C1004      C1005   1.408       .  A
C1004      F1009   1.357       .  S
C1005      C1006   1.414       .  A
C1006      F1007   1.358       .  S
C1011      C1012   1.408       .  A
C1011      C1016   1.399       .  A
C1011      F1018   1.358       .  S
C1012      C1013   1.410       .  A
C1013      C1014   1.400       .  A
C1013      F1020   1.358       .  S
C1014      C1015   1.407       .  A
C1014      F1019   1.358       .  S
C1015      C1016   1.408       .  A
C1016      F1017   1.358       .  S
C1021      C1022   1.414       .  A
C1021      C1026   1.400       .  A
C1021      F1028   1.358       .  S
C1022      C1023   1.409       .  A
C1023      C1024   1.407       .  A
C1023      F1030   1.357       .  S
C1024      C1025   1.410       .  A
C1024      F1029   1.358       .  S
C1025      C1026   1.402       .  A
C1026      F1027   1.358       .  S
C1031      C1032   1.407       .  A
C1031      C1036   1.398       .  A
C1032      C1033   1.411       .  A
C1033      C1034   1.406       .  A
C1033      F1040   1.358       .  S
C1034      C1035   1.410       .  A
C1034      F1039   1.358       .  S
C1035      C1036   1.410       .  A
C1036      F1037   1.358       .  S
C1041      C1042   1.408       .  A
C1041      C1046   1.391       .  A
C1041      F1048   1.358       .  S
C1042      C1043   1.408   1_565  A
C1043      C1044   1.397       .  A
C1043      F1050   1.358       .  S
C1044      C1045   1.404   1_545  A
C1044      F1049   1.358       .  S
C1045      C1046   1.402       .  A
C1046      F1047   1.358       .  S
C1051      C1052   1.402       .  A
C1051      C1056   1.403       .  A
C1051      F1058   1.357       .  S
C1053      C1054   1.397       .  A
C1053      F1060   1.359       .  S
C1054      C1055   1.406       .  A
C1054      F1059   1.358       .  S
C1056      F1057   1.358       .  S
C1061      C1062   1.412       .  A
C1061      C1066   1.404       .  A
C1061      F1068   1.358       .  S
C1062      C1063   1.405       .  A
C1063      C1064   1.395       .  A
C1063      F1070   1.358       .  S
C1064      C1065   1.409       .  A
C1064      F1069   1.358       .  S
C1065      C1066   1.405       .  A
C1066      F1067   1.358       .  S
C1071      C1072   1.407       .  A
C1071      C1076   1.402       .  A
C1071      F1078   1.358       .  S
C1072      C1073   1.409       .  A
C1073      C1074   1.404       .  A
C1073      F1080   1.358       .  S
C1074      C1075   1.410       .  A
C1074      F1079   1.357       .  S
C1075      C1076   1.411       .  A
C1076      F1077   1.358       .  S
C1081      C1082   1.407       .  A
C1081      C1086   1.404       .  A
C1081      F1088   1.357       .  S
C1082      C1083   1.413       .  A
C1083      C1084   1.398       .  A
C1083      F1090   1.358       .  S
C1084      C1085   1.404       .  A
C1084      F1089   1.358       .  S
C1085      C1086   1.410       .  A
C1086      F1087   1.358       .  S
C1091      C1092   1.409       .  A
C1091      C1096   1.402       .  A
C1091      F1098   1.358       .  S
C1092      C1093   1.409       .  A
C1093      C1094   1.397       .  A
C1093      F1100   1.358       .  S
C1094      C1095   1.408       .  A
C1094      F1099   1.358       .  S
C1095      C1096   1.409       .  A
C1096      F1097   1.358       .  S
C1101      C1102   1.403       .  A
C1101      C1106   1.394       .  A
C1102      C1103   1.406       .  A
C1103      C1104   1.397       .  A
C1103      F1110   1.358       .  S
C1104      C1105   1.407       .  A
C1104      F1109   1.358       .  S
C1105      C1106   1.409       .  A
C1106      F1107   1.358   1_565  S
C1111      C1112   1.401       .  A
C1111      C1116   1.402       .  A
C1111      F1118   1.357       .  S
C1112      C1113   1.405       .  A
C1113      C1114   1.397       .  A
C1113      F1120   1.359       .  S
C1114      C1115   1.407       .  A
C1114      F1119   1.358       .  S
C1115      C1116   1.411       .  A
C1116      F1117   1.358       .  S
