geometry optimzed in LAMMPS
_audit_creation_date              2020-11-30 
_audit_creation_method            'lammps2cif' 
_symmetry_space_group_name_H-M    'P1' 
_symmetry_Int_Tables_number       1 
_symmetry_cell_setting            triclinic 
loop_ 
_symmetry_equiv_pos_as_xyz 
  x,y,z 
_cell_length_a                    40.32269932124679 
_cell_length_b                    40.649932802316535 
_cell_length_c                    40.39200945602126 
_cell_angle_alpha                 85.71961269184311 
_cell_angle_beta                  85.47754059533221 
_cell_angle_gamma                 94.67180962523524 
loop_ 
_atom_site_label 
_atom_site_type_symbol 
_atom_site_fract_x 
_atom_site_fract_y 
_atom_site_fract_z 
_atom_site_charge 
C1          C  0.10338648  0.27959716  0.51686909     0.02900
C2          C  0.13780422  0.27667173  0.01757679    -0.13250
C3          C  0.14982936  0.24528719  0.02247808     0.00400
C4          C  0.12729637  0.21697369  0.02339619    -0.11780
C5          C  0.09255363  0.21953669  0.52550625     0.02890
C6          C  0.08097723  0.25108950  0.52140506    -0.11200
H7          H  0.15484109  0.29881692  0.01640897     0.08480
H8          H  0.13670810  0.19280109  0.02608215     0.06010
H9          H  0.05442798  0.25386977  0.52411413     0.05860
C10         C  0.31670934  0.18443988  0.09601758     0.02900
C11         C  0.33658843  0.21257812  0.10306379    -0.13250
C12         C  0.33006173  0.24424952  0.09038857     0.00400
C13         C  0.30090372  0.24703111  0.07339505    -0.11780
C14         C  0.27826388  0.21960344  0.07039908     0.02890
C15         C  0.28659568  0.18798158  0.08133831    -0.11200
H16         H  0.35811634  0.20902735  0.11662590     0.08480
H17         H  0.29531909  0.27076065  0.06219541     0.06010
H18         H  0.27064025  0.16617965  0.07730258     0.05860
C19         C  0.16559292  0.45416847  0.20507078     0.02900
C20         C  0.17095690  0.46283014  0.23750602    -0.13250
C21         C  0.20361320  0.46956091  0.24692243     0.00400
C22         C  0.23082548  0.46606370  0.22383625    -0.11780
C23         C  0.22562539  0.45900443  0.19109212     0.02890
C24         C  0.19319743  0.45350528  0.18178169    -0.11200
H25         H  0.14975390  0.46483965  0.25523422     0.08480
H26         H  0.25608905  0.46912650  0.23111004     0.06010
H27         H  0.18949387  0.44875203  0.15621758     0.05860
C28         C  0.25694896  0.02541513  0.42314177     0.02900
C29         C  0.25253518  0.01484184  0.39126944    -0.13250
C30         C  0.22039745  0.01156752  0.37976267     0.00400
C31         C  0.19269341  0.01824318  0.40085603    -0.11780
C32         C  0.19685252  0.02735447  0.43321745     0.02890
C33         C  0.22902983  0.03296676  0.44320082    -0.11200
H34         H  0.27361782  0.00745390  0.37615787     0.08480
H35         H  0.16779305  0.01511674  0.39263524     0.06010
H36         H  0.23215024  0.04041539  0.46806864     0.05860
C37         C  0.99997372  0.11976115  0.27160729     0.02900
C38         C  0.00947049  0.10185782  0.29988381    -0.13250
C39         C  0.01711283  0.11760718  0.32850445     0.00400
C40         C  0.01557656  0.15236564  0.32749308    -0.11780
C41         C  0.00205735  0.16960356  0.30113055     0.02890
C42         C  0.99558798  0.15354967  0.27256786    -0.11200
H43         H  0.00895105  0.07527343  0.29977092     0.08480
H44         H  0.02217168  0.16607788  0.34829941     0.06010
H45         H  0.98563609  0.16684178  0.25184017     0.05860
C46         C  0.43829828  0.33998242  0.35745557     0.02900
C47         C  0.44793703  0.30807098  0.35238972    -0.13250
C48         C  0.45341133  0.29809595  0.31986947     0.00400
C49         C  0.44727295  0.31974213  0.29271315    -0.11780
C50         C  0.43798423  0.35159714  0.29771045     0.02890
C51         C  0.43320147  0.36144492  0.32993664    -0.11200
H52         H  0.45231103  0.29151070  0.37356109     0.08480
H53         H  0.45058561  0.31224471  0.26758069     0.06010
H54         H  0.42720691  0.38654384  0.33348538     0.05860
O55         O  0.02951165  0.41714324  0.01436196    -0.86720
O56         O  0.42564038  0.45961427  0.16888753    -0.86890
O57         O  0.02688790  0.43180319  0.12997986    -0.88550
O58         O  0.43748198  0.37638991  0.09591166    -0.87310
O59         O  0.39824727  0.39127016  0.06105837    -0.86900
O60         O  0.04902153  0.48586279  0.12066703    -0.88270
O61         O  0.45720015  0.41712580  0.15524589    -0.86750
O62         O  0.01458855  0.39245767  0.06685599    -0.86340
Zr63       Zr  0.47773945  0.42605165  0.09729754     2.84310
O64         O  0.42425605  0.44481541  0.09803813    -1.08310
O65         O  0.01589179  0.46312177  0.06300499    -1.09040
C66         C  0.03100733  0.39404305  0.03798861     1.06390
C67         C  0.43951007  0.43256750  0.17592047     1.06330
C68         C  0.04798523  0.45639291  0.13505445     1.09310
C69         C  0.41046282  0.37039213  0.08093785     1.07090
H70         H  0.48531305  0.47788436  0.14000954     0.32650
O71         O  0.47838442  0.47862802  0.11765452    -1.29260
H72         H  0.46133818  0.40815851  0.03495082     0.32320
O73         O  0.46157643  0.42991041  0.04306893    -1.30940
O74         O  0.39505875  0.04778715  0.11266431    -0.86710
O75         O  0.50501683  0.50754985  0.45926913    -0.88210
O76         O  0.00794061  0.04385548  0.13450573    -0.86790
O77         O  0.35596292  0.44759240  0.08092455    -0.86840
O78         O  0.41633167  0.41888190  0.99326995    -0.86550
O79         O  0.06709273  0.02062198  0.04592326    -0.86360
O80         O  0.48193489  0.08880413  0.03434581    -0.86730
O81         O  0.39556727  0.03311810  0.99883925    -0.86190
O82         O  0.02290817  0.07388116  0.06686630    -0.87260
O83         O  0.37524203  0.47858639  0.00666017    -0.86410
O84         O  0.45314719  0.03300768  0.15465749    -0.86810
O85         O  0.05620001  0.49080969  0.00120812    -0.86530
O86         O  0.47065063  0.43168415  0.47205900    -0.86180
O87         O  0.36787251  0.47560647  0.12651238    -0.86590
O88         O  0.40899370  0.07037091  0.05945409    -0.86890
O89         O  0.47097200  0.04753678  0.47308995    -0.88230
Zr90       Zr  0.42521457  0.49744026  0.11828585     2.83100
Zr91       Zr  0.49906684  0.46704132  0.00856881     2.83500
Zr92       Zr  0.01569369  0.01556316  0.08342554     2.84090
Zr93       Zr  0.40824882  0.44867318  0.04356670     2.83360
Zr94       Zr  0.44595033  0.03738062  0.02954996     2.84220
O95         O  0.44537264  0.48535160  0.00823764    -1.08800
O96         O  0.46252953  0.03447172  0.08382784    -1.08300
C97         C  0.39315971  0.07013451  0.08842751     1.06360
C98         C  0.49266639  0.03565972  0.45330348     1.08980
C99         C  0.48295276  0.04667252  0.15588706     1.06530
C100        C  0.34795161  0.45888297  0.10949221     1.06890
C101        C  0.44139815  0.41625319  0.47184205     1.06480
C102        C  0.07505654  0.50984799  0.01727649     1.06030
C103        C  0.00859545  0.09551423  0.04944727     1.06450
C104        C  0.37390792  0.00867295  0.99493128     1.05970
H105        H  0.01458522  0.03509023  0.01573992     0.32650
O106        O  0.49926080  0.01919588  0.02938314    -1.29900
H107        H  0.38609000  0.00791198  0.06405646     0.32670
O108        O  0.40830456  0.50066443  0.06404757    -1.31280
C109        C  0.46607951  0.41567186  0.22634620    -0.20540
C110        C  0.43653320  0.41774755  0.21047839    -0.07100
C111        C  0.40672314  0.40025558  0.22510751     0.13770
C112        C  0.40737693  0.37958603  0.25444764    -0.20590
C113        C  0.43735272  0.37605746  0.26907152    -0.07110
C114        C  0.46680187  0.39511038  0.25563715     0.13750
C115        C  0.49912199  0.39304727  0.27172825    -0.23940
H116        H  0.48899842  0.42904770  0.21488985     0.15040
H117        H  0.38482455  0.36510459  0.26523133     0.15070
C118        C  0.37492438  0.40152975  0.20846342    -0.23890
H119        H  0.01972868  0.40964442  0.25797433     0.05280
H120        H  0.50651097  0.36733453  0.27225651     0.08510
H121        H  0.49594826  0.40043067  0.29762677     0.08510
H122        H  0.37864059  0.39179915  0.18364459     0.08490
H123        H  0.36816145  0.42746112  0.20550945     0.08490
H124        H  0.35393603  0.38624212  0.22313151     0.05270
C125        C  0.40802090  0.36631859  0.40302858    -0.20540
C126        C  0.43739135  0.35338803  0.39060198    -0.07100
C127        C  0.46690647  0.35900797  0.40669885     0.13770
C128        C  0.46655980  0.37823820  0.43402819    -0.20590
C129        C  0.43777616  0.39288527  0.44543708    -0.07110
C130        C  0.40774628  0.38596923  0.43029680     0.13750
C131        C  0.37586624  0.40045022  0.44140176    -0.23940
H132        H  0.38555061  0.36222338  0.39028524     0.15040
H133        H  0.48946825  0.38271024  0.44598166     0.15070
C134        C  0.49948262  0.34676476  0.39390963    -0.23890
H135        H  0.35540752  0.39365575  0.42564498     0.05280
H136        H  0.37995028  0.42789447  0.43975497     0.08510
H137        H  0.36745273  0.39092558  0.46742929     0.08510
H138        H  0.50586423  0.35616056  0.36745720     0.08490
H139        H  0.49754877  0.31931910  0.39607741     0.08490
H140        H  0.02042843  0.35532202  0.40832531     0.05270
C141        C  0.46880538  0.05605947  0.21480738    -0.20540
C142        C  0.48818672  0.06632212  0.18479625    -0.07100
C143        C  0.00995899  0.09567891  0.18297810     0.13770
C144        C  0.01241352  0.11321233  0.21152144    -0.20590
C145        C  0.99338862  0.10244312  0.24156053    -0.07110
C146        C  0.47049721  0.07404064  0.24286401     0.13750
C147        C  0.44666586  0.06245134  0.27294286    -0.23940
H148        H  0.45165034  0.03390468  0.21636429     0.15040
H149        H  0.02973964  0.13516899  0.21060500     0.15070
C150        C  0.02995555  0.10922173  0.15107274    -0.23890
H151        H  0.42071514  0.06032208  0.26543732     0.05280
H152        H  0.44717716  0.07972519  0.29287951     0.08510
H153        H  0.95268768  0.03776143  0.28325445     0.08510
H154        H  0.51299230  0.11309344  0.13103854     0.08490
H155        H  0.04843981  0.09180022  0.14358390     0.08490
H156        H  0.04398283  0.13338055  0.15388234     0.05270
C157        C  0.00648486  0.11062133  0.39023363    -0.20540
C158        C  0.01916161  0.09756178  0.36116427    -0.07100
C159        C  0.02904593  0.06463136  0.36433898     0.13770
C160        C  0.51979355  0.04440789  0.39421636    -0.20590
C161        C  0.50434068  0.05728828  0.42227593    -0.07110
C162        C  0.50109619  0.09188282  0.42067926     0.13750
C163        C  0.49260791  0.11024456  0.45080141    -0.23940
H164        H  0.99899859  0.13551047  0.38961543     0.15040
H165        H  0.52532145  0.01871643  0.39570240     0.15070
C166        C  0.05096945  0.05061653  0.33792681    -0.23890
H167        H  0.49672986  0.13752982  0.44521435     0.05280
H168        H  0.00903611  0.10361144  0.47062422     0.08510
H169        H  0.46585898  0.10461841  0.45965333     0.08510
H170        H  0.06104593  0.06958995  0.31771744     0.08490
H171        H  0.03683553  0.02986057  0.32735166     0.08490
H172        H  0.07289651  0.04106402  0.34922485     0.05270
C173        C  0.00785534  0.23115524  0.29063774    -0.20540
C174        C  0.48969134  0.20247154  0.30590865    -0.07100
C175        C  0.45969877  0.20524419  0.32579549     0.13770
C176        C  0.44845782  0.23665359  0.32971427    -0.20590
C177        C  0.46643576  0.26548863  0.31431041    -0.07110
C178        C  0.49684374  0.26269592  0.29484766     0.13750
C179        C  0.51866696  0.29280652  0.27973038    -0.23940
H180        H  0.03096967  0.22884046  0.27571584     0.15040
H181        H  0.42537818  0.23874965  0.34478634     0.15070
C182        C  0.43925487  0.17499611  0.34258932    -0.23890
H183        H  0.04279574  0.28602490  0.26811476     0.05280
H184        H  0.02427028  0.30967197  0.29934902     0.08510
H185        H  0.50619830  0.30604160  0.25992261     0.08510
H186        H  0.45397774  0.16196961  0.36069250     0.08490
H187        H  0.43197674  0.15796218  0.32363881     0.08490
H188        H  0.41609623  0.18152343  0.35639564     0.05270
C189        C  0.14250305  0.04742909  0.45260923    -0.20540
C190        C  0.16767556  0.02630289  0.45814375    -0.07100
C191        C  0.16339716  0.00243251  0.48601483     0.13770
C192        C  0.13371211  0.49962216  0.00684155    -0.20590
C193        C  0.10823053  0.01981141  0.50050434    -0.07110
C194        C  0.11270938  0.04439606  0.47352898     0.13750
C195        C  0.08555689  0.06657490  0.46624512    -0.23940
H196        H  0.14577103  0.06559637  0.43129939     0.15040
H197        H  0.12960229  0.48038837  0.02720435     0.15070
C198        C  0.18911264  0.47857913  0.49317350    -0.23890
H199        H  0.09312935  0.08460109  0.44439284     0.05280
H200        H  0.07953108  0.08062556  0.48816718     0.08510
H201        H  0.06283745  0.05142079  0.46080437     0.08510
H202        H  0.21130311  0.99222320  0.50170233     0.08490
H203        H  0.19610131  0.46587056  0.47057219     0.08490
H204        H  0.17974035  0.45924700  0.01338451     0.05420
C205        C  0.28590419  0.00089531  0.46877783    -0.20540
C206        C  0.28841756  0.02167610  0.43930733    -0.07100
C207        C  0.31940442  0.03943997  0.42821830     0.13770
C208        C  0.34717271  0.03550757  0.44696797    -0.20590
C209        C  0.34425088  0.01463893  0.47666199    -0.07110
C210        C  0.31270685  0.99802157  0.98817959     0.13750
C211        C  0.30630092  0.47819300  0.02163517    -0.23940
H212        H  0.26240307  0.98685044  0.47693538     0.15040
H213        H  0.37120884  0.04843677  0.43828500     0.15070
C214        C  0.32303821  0.06292617  0.39728683    -0.23890
H215        H  0.27925823  0.47102023  0.02813575     0.05280
H216        H  0.31532051  0.99321156  0.04152409     0.08510
H217        H  0.31880572  0.45489878  0.02142261     0.08510
H218        H  0.30501889  0.08202582  0.39976606     0.08490
H219        H  0.31822927  0.04921838  0.37518500     0.08490
H220        H  0.34859337  0.07572742  0.39297083     0.05270
C221        C  0.09308900  0.42474317  0.15689034    -0.20540
C222        C  0.07335913  0.45139535  0.15914468    -0.07100
C223        C  0.08040447  0.47497040  0.18237606     0.13770
C224        C  0.10944720  0.47369406  0.19922905    -0.20590
C225        C  0.13139691  0.44920722  0.19386480    -0.07110
C226        C  0.12184504  0.42311312  0.17417261     0.13750
C227        C  0.14140091  0.39330768  0.17066451    -0.23940
H228        H  0.08687490  0.40569954  0.14065585     0.15040
H229        H  0.11608121  0.49321290  0.21500007     0.15070
C230        C  0.05754375  0.50168602  0.18946361    -0.23890
H231        H  0.12457108  0.37040583  0.17755563     0.05280
H232        H  0.16207614  0.39271881  0.18716227     0.08510
H233        H  0.15180019  0.39299332  0.14441208     0.08510
H234        H  0.03162911  0.49039707  0.19610991     0.08490
H235        H  0.05808037  0.51978665  0.16748509     0.08490
H236        H  0.06520876  0.51569848  0.21059515     0.05270
C237        C  0.27027168  0.42836892  0.16593300    -0.20540
C238        C  0.25424484  0.45753890  0.16633435    -0.07100
C239        C  0.26659222  0.48519546  0.14440294     0.13770
C240        C  0.29557756  0.48329925  0.12321856    -0.20590
C241        C  0.31306479  0.45476802  0.12424569    -0.07110
C242        C  0.30011918  0.42692718  0.14602483     0.13750
C243        C  0.31802702  0.39627145  0.15114876    -0.23940
H244        H  0.26056384  0.40723530  0.18292363     0.15040
H245        H  0.30598077  0.00502652  0.10741574     0.15070
C246        C  0.25008521  0.01712051  0.14451983    -0.23890
H247        H  0.31840652  0.38956572  0.17818189     0.05280
H248        H  0.34422522  0.39972134  0.14022888     0.08510
H249        H  0.30424360  0.37536318  0.14053102     0.08510
H250        H  0.25011370  0.02650318  0.16964719     0.08490
H251        H  0.22392400  0.01283538  0.13803267     0.08490
H252        H  0.26329007  0.03652833  0.12623137     0.05270
C253        C  0.19343612  0.46090833  0.30884817    -0.20540
C254        C  0.20905482  0.48031215  0.28080296    -0.07100
C255        C  0.22827291  0.51014598  0.28562783     0.13770
C256        C  0.23158861  0.01937618  0.31816822    -0.20590
C257        C  0.21581694  0.00008258  0.34610772    -0.07110
C258        C  0.19657034  0.47031951  0.34137572     0.13750
C259        C  0.18022203  0.94774359  0.37045818    -0.23940
H260        H  0.17876653  0.43810196  0.30523829     0.15040
H261        H  0.24622890  0.04217646  0.32188227     0.15070
C262        C  0.24404955  0.53334224  0.25672508    -0.23890
H263        H  0.16834249  0.42447009  0.36221358     0.05280
H264        H  0.16037893  0.95998677  0.38407335     0.08510
H265        H  0.19920342  0.44102977  0.38766263     0.08510
H266        H  0.22493011  0.53953150  0.23948272     0.08490
H267        H  0.26456262  0.52202338  0.24313200     0.08490
H268        H  0.25504692  0.55689581  0.26518743     0.05270
C269        C  0.37191840  0.12150118  0.06468788    -0.20540
C270        C  0.37141915  0.09806023  0.09237666    -0.07100
C271        C  0.35029304  0.10235051  0.12136226     0.13770
C272        C  0.33152258  0.13024909  0.12188737    -0.20590
C273        C  0.33293435  0.15338415  0.09410526    -0.07110
C274        C  0.35316873  0.14868951  0.06508309     0.13750
C275        C  0.35644198  0.17225921  0.03394881    -0.23940
H276        H  0.38744774  0.11916355  0.04198357     0.15040
H277        H  0.31609473  0.13432983  0.14415779     0.15070
C278        C  0.34726323  0.07810020  0.15173956    -0.23890
H279        H  0.34870464  0.15866954  0.01257907     0.05280
H280        H  0.38291242  0.18233398  0.02851811     0.08510
H281        H  0.34108920  0.19350906  0.03567269     0.08510
H282        H  0.37189528  0.07703066  0.16207429     0.08490
H283        H  0.33800924  0.05317061  0.14508361     0.08490
H284        H  0.32938295  0.08536528  0.17167334     0.05270
C285        C  0.33736848  0.30441947  0.09603270    -0.20540
C286        C  0.35279075  0.27488730  0.09380963    -0.07100
C287        C  0.38849252  0.27703837  0.08998473     0.13770
C288        C  0.40674030  0.30838824  0.08887477    -0.20590
C289        C  0.39062632  0.33766421  0.08682279    -0.07110
C290        C  0.35517286  0.33513019  0.08799437     0.13750
C291        C  0.33532051  0.36331883  0.07688604    -0.23940
H292        H  0.31043878  0.30355098  0.10027219     0.15040
H293        H  0.43380679  0.31013434  0.08677670     0.15070
C294        C  0.40804354  0.24752078  0.08469294    -0.23890
H295        H  0.30793309  0.35704677  0.08156689     0.05280
H296        H  0.34071760  0.36935780  0.04963047     0.08510
H297        H  0.34183452  0.38552775  0.08966331     0.08510
H298        H  0.39746737  0.23281311  0.06532720     0.08490
H299        H  0.40835672  0.23214119  0.10846299     0.08490
H300        H  0.43456398  0.25519468  0.07599415     0.05270
C301        C  0.03769449  0.18628502  0.52095434    -0.20540
C302        C  0.06857829  0.18963593  0.03510495    -0.07100
C303        C  0.07556339  0.16442041  0.05899879     0.13770
C304        C  0.05586544  0.13434955  0.06226821    -0.20590
C305        C  0.02612264  0.12975268  0.04631795    -0.07110
C306        C  0.01529902  0.15765821  0.02837047     0.13750
C307        C  0.47973524  0.15895391  0.51967519    -0.23940
H308        H  0.03063985  0.20630270  0.50448569     0.15040
H309        H  0.06362862  0.11467282  0.07872500     0.15070
C310        C  0.10204505  0.16864669  0.08319653    -0.23890
H311        H  0.47547627  0.18352435  0.50758599     0.05280
H312        H  0.46264169  0.15445750  0.54279835     0.08510
H313        H  0.47290832  0.14027039  0.50252770     0.08510
H314        H  0.11234928  0.19467797  0.08371949     0.08490
H315        H  0.12251100  0.15280020  0.07720892     0.08490
H316        H  0.09088086  0.16096596  0.10890947     0.05270
C317        C  0.05825139  0.35675211  0.49939983    -0.20540
C318        C  0.05291048  0.36686417  0.03185649    -0.07100
C319        C  0.06802075  0.35011612  0.05816189     0.13770
C320        C  0.08629822  0.32315179  0.05167152    -0.20590
C321        C  0.08973599  0.31197044  0.01985191    -0.07110
C322        C  0.07626096  0.32924383  0.49320029     0.13750
C323        C  0.08057308  0.31830778  0.45846327    -0.23940
H324        H  0.04724744  0.36955018  0.47904772     0.15040
H325        H  0.09683393  0.30966907  0.07194478     0.15070
C326        C  0.06568738  0.36058282  0.09319078    -0.23890
H327        H  0.06888652  0.33469766  0.44036686     0.05280
H328        H  0.06882328  0.29270317  0.45796982     0.08510
H329        H  0.10759721  0.31888395  0.45038649     0.08510
H330        H  0.03986210  0.35506622  0.10502869     0.08490
H331        H  0.07328944  0.38746818  0.09233699     0.08490
H332        H  0.08239143  0.34739733  0.10919590     0.05270
C333        C  0.20474198  0.22070914  0.01577860    -0.20540
C334        C  0.18413090  0.24138594  0.03284268    -0.07100
C335        C  0.19459518  0.25410577  0.06245045     0.13770
C336        C  0.22515782  0.24609425  0.07384611    -0.20590
C337        C  0.24561920  0.22530754  0.05700733    -0.07110
C338        C  0.23542395  0.21264449  0.02737519     0.13750
C339        C  0.25709554  0.19143436  0.00746042    -0.23940
H340        H  0.19654752  0.21052188  0.99344742     0.15040
H341        H  0.23310814  0.25589337  0.09646865     0.15070
C342        C  0.17306650  0.27479902  0.08329513    -0.23890
H343        H  0.24617674  0.18530180  0.98404354     0.05280
H344        H  0.25980504  0.16777404  0.02206079     0.08510
H345        H  0.28213541  0.20478203  0.00074659     0.08510
H346        H  0.14798770  0.26147524  0.08985209     0.08490
H347        H  0.17058018  0.29899390  0.06959803     0.08490
H348        H  0.18402730  0.28010281  0.10691575     0.05270
C349        C  0.10338641  0.27959717  0.01686910     0.02900
C350        C  0.13780429  0.27667172  0.51757683    -0.13250
C351        C  0.14982942  0.24528718  0.52247813     0.00400
C352        C  0.12729643  0.21697368  0.52339620    -0.11780
C353        C  0.09255357  0.21953669  0.02550630     0.02890
C354        C  0.08097716  0.25108950  0.02140512    -0.11200
H355        H  0.15484115  0.29881690  0.51640906     0.08480
H356        H  0.13670815  0.19280108  0.52608218     0.06010
H357        H  0.05442791  0.25386977  0.02411423     0.05860
C358        C  0.31670929  0.18443994  0.59601798     0.02900
C359        C  0.33658827  0.21257820  0.60306435    -0.13250
C360        C  0.33006158  0.24424961  0.59038909     0.00400
C361        C  0.30090364  0.24703115  0.57339544    -0.11780
C362        C  0.27826385  0.21960345  0.57039939     0.02890
C363        C  0.28659568  0.18798160  0.58133861    -0.11200
H364        H  0.35811609  0.20902743  0.61662657     0.08480
H365        H  0.29531902  0.27076065  0.56219572     0.06010
H366        H  0.27064033  0.16617965  0.57730278     0.05860
C367        C  0.16559303  0.45416781  0.70507088     0.02900
C368        C  0.17095699  0.46282948  0.73750612    -0.13250
C369        C  0.20361328  0.46956011  0.74692260     0.00400
C370        C  0.23082558  0.46606277  0.72383648    -0.11780
C371        C  0.22562552  0.45900349  0.69109236     0.02890
C372        C  0.19319757  0.45350445  0.68178185    -0.11200
H373        H  0.14975397  0.46483914  0.75523426     0.08480
H374        H  0.25608913  0.46912554  0.73111031     0.06010
H375        H  0.18949404  0.44875123  0.65621773     0.05860
C376        C  0.25694903  0.02541513  0.92314177     0.02900
C377        C  0.25253523  0.01484186  0.89126944    -0.13250
C378        C  0.22039750  0.01156755  0.87976268     0.00400
C379        C  0.19269347  0.01824321  0.90085605    -0.11780
C380        C  0.19685260  0.02735449  0.93321748     0.02890
C381        C  0.22902991  0.03296676  0.94320084    -0.11200
H382        H  0.27361786  0.00745392  0.87615786     0.08480
H383        H  0.16779311  0.01511679  0.89263527     0.06010
H384        H  0.23215033  0.04041540  0.96806866     0.05860
C385        C  0.99997363  0.11976119  0.77160731     0.02900
C386        C  0.00947042  0.10185787  0.79988383    -0.13250
C387        C  0.01711274  0.11760723  0.82850447     0.00400
C388        C  0.01557640  0.15236568  0.82749312    -0.11780
C389        C  0.00205716  0.16960359  0.80113060     0.02890
C390        C  0.99558783  0.15354970  0.77256790    -0.11200
H391        H  0.00895102  0.07527348  0.79977092     0.08480
H392        H  0.02217150  0.16607792  0.84829945     0.06010
H393        H  0.98563593  0.16684179  0.75184021     0.05860
C394        C  0.43829795  0.33998242  0.85745555     0.02900
C395        C  0.44793671  0.30807098  0.85238969    -0.13250
C396        C  0.45341101  0.29809595  0.81986944     0.00400
C397        C  0.44727263  0.31974212  0.79271312    -0.11780
C398        C  0.43798388  0.35159713  0.79771042     0.02890
C399        C  0.43320111  0.36144491  0.82993662    -0.11200
H400        H  0.45231073  0.29151071  0.87356106     0.08480
H401        H  0.45058532  0.31224472  0.76758066     0.06010
H402        H  0.42720655  0.38654383  0.83348537     0.05860
O403        O  0.02951175  0.41714326  0.51436199    -0.86720
O404        O  0.42564040  0.45961438  0.66888753    -0.86890
O405        O  0.02688800  0.43180320  0.62997986    -0.88550
O406        O  0.43748195  0.37638999  0.59591178    -0.87310
O407        O  0.39824731  0.39127023  0.56105843    -0.86900
O408        O  0.04902164  0.48586280  0.62066704    -0.88270
O409        O  0.45720020  0.41712591  0.65524593    -0.86750
O410        O  0.01458859  0.39245767  0.56685601    -0.86340
Zr411      Zr  0.47773952  0.42605169  0.59729757     2.84310
O412        O  0.42425614  0.44481547  0.59803811    -1.08310
O413        O  0.01589187  0.46312180  0.56300503    -1.09040
C414        C  0.03100740  0.39404305  0.53798863     1.06390
C415        C  0.43951010  0.43256762  0.67592049     1.06330
C416        C  0.04798535  0.45639291  0.63505443     1.09310
C417        C  0.41046280  0.37039221  0.58093797     1.07090
H418        H  0.48531311  0.47788441  0.64000956     0.32650
O419        O  0.47838449  0.47862806  0.61765454    -1.29260
H420        H  0.46133828  0.40815853  0.53495085     0.32320
O421        O  0.46157654  0.42991044  0.54306894    -1.30940
O422        O  0.39505880  0.04778725  0.61266438    -0.86710
O423        O  0.50501671  0.50754983  0.95926911    -0.88210
O424        O  0.00794057  0.04385554  0.63450573    -0.86790
O425        O  0.35596307  0.44759229  0.58092458    -0.86840
O426        O  0.41633183  0.41888189  0.49326995    -0.86550
O427        O  0.06709267  0.02062202  0.54592325    -0.86360
O428        O  0.48193484  0.08880419  0.53434579    -0.86730
O429        O  0.39556720  0.03311816  0.49883926    -0.86190
O430        O  0.02290812  0.07388120  0.56686629    -0.87260
O431        O  0.37524212  0.47858642  0.50666017    -0.86410
O432        O  0.45314716  0.03300771  0.65465751    -0.86810
O433        O  0.05620013  0.49080973  0.50120818    -0.86530
O434        O  0.47065048  0.43168413  0.97205898    -0.86180
O435        O  0.36787263  0.47560638  0.62651240    -0.86590
O436        O  0.40899364  0.07037099  0.55945413    -0.86890
O437        O  0.47097204  0.04753673  0.97308995    -0.88230
Zr438      Zr  0.42521464  0.49744032  0.61828583     2.83100
Zr439      Zr  0.49906696  0.46704135  0.50856883     2.83500
Zr440      Zr  0.01569364  0.01556321  0.58342555     2.84090
Zr441      Zr  0.40824894  0.44867321  0.54356668     2.83360
Zr442      Zr  0.44595026  0.03738069  0.52954997     2.84220
O443        O  0.44537275  0.48535163  0.50823762    -1.08800
O444        O  0.46252947  0.03447177  0.58382784    -1.08300
C445        C  0.39315973  0.07013462  0.58842760     1.06360
C446        C  0.49266645  0.03565969  0.95330348     1.08980
C447        C  0.48295272  0.04667257  0.65588706     1.06530
C448        C  0.34795175  0.45888280  0.60949226     1.06890
C449        C  0.44139798  0.41625319  0.97184203     1.06480
C450        C  0.07505664  0.50984805  0.51727654     1.06030
C451        C  0.00859541  0.09551427  0.54944726     1.06450
C452        C  0.37390785  0.00867301  0.49493129     1.05970
H453        H  0.01458515  0.03509028  0.51573993     0.32650
O454        O  0.49926072  0.01919593  0.52938314    -1.29900
H455        H  0.38608995  0.00791205  0.56405649     0.32670
O456        O  0.40830463  0.50066447  0.56404755    -1.31280
C457        C  0.46607951  0.41567168  0.72634614    -0.20540
C458        C  0.43653319  0.41774768  0.71047841    -0.07100
C459        C  0.40672299  0.40025604  0.72510764     0.13770
C460        C  0.40737668  0.37958641  0.75444774    -0.20590
C461        C  0.43735249  0.37605750  0.76907151    -0.07110
C462        C  0.46680175  0.39511018  0.75563708     0.13750
C463        C  0.49912187  0.39304683  0.77172814    -0.23940
H464        H  0.48899850  0.42904732  0.71488973     0.15040
H465        H  0.38482420  0.36510519  0.76523150     0.15070
C466        C  0.37492417  0.40153065  0.70846370    -0.23890
H467        H  0.01972866  0.40964378  0.75797419     0.05280
H468        H  0.50651066  0.36733402  0.77225639     0.08510
H469        H  0.49594824  0.40043024  0.79762666     0.08510
H470        H  0.37864017  0.39180013  0.68364481     0.08490
H471        H  0.36816154  0.42746213  0.70550985     0.08490
H472        H  0.35393573  0.38624320  0.72313180     0.05270
C473        C  0.40802063  0.36631861  0.90302859    -0.20540
C474        C  0.43739107  0.35338805  0.89060195    -0.07100
C475        C  0.46690622  0.35900800  0.90669877     0.13770
C476        C  0.46655959  0.37823823  0.93402810    -0.20590
C477        C  0.43777597  0.39288529  0.94543704    -0.07110
C478        C  0.40774606  0.38596925  0.93029681     0.13750
C479        C  0.37586603  0.40045024  0.94140181    -0.23940
H480        H  0.38555033  0.36222339  0.89028529     0.15040
H481        H  0.48946807  0.38271028  0.94598154     0.15070
C482        C  0.49948236  0.34676480  0.89390949    -0.23890
H483        H  0.35540728  0.39365577  0.92564506     0.05280
H484        H  0.37995006  0.42789448  0.93975502     0.08510
H485        H  0.36745255  0.39092559  0.96742935     0.08510
H486        H  0.50586393  0.35616060  0.86745706     0.08490
H487        H  0.49754852  0.31931915  0.89607727     0.08490
H488        H  0.02042817  0.35532205  0.90832514     0.05270
C489        C  0.46880535  0.05605951  0.71480739    -0.20540
C490        C  0.48818669  0.06632218  0.68479626    -0.07100
C491        C  0.00995893  0.09567896  0.68297812     0.13770
C492        C  0.01241345  0.11321238  0.71152146    -0.20590
C493        C  0.99338855  0.10244316  0.74156055    -0.07110
C494        C  0.47049717  0.07404068  0.74286402     0.13750
C495        C  0.44666582  0.06245138  0.77294287    -0.23940
H496        H  0.45165031  0.03390473  0.71636429     0.15040
H497        H  0.02973956  0.13516905  0.71060503     0.15070
C498        C  0.02995549  0.10922179  0.65107276    -0.23890
H499        H  0.42071510  0.06032212  0.76543733     0.05280
H500        H  0.44717712  0.07972523  0.79287951     0.08510
H501        H  0.95268764  0.03776145  0.78325446     0.08510
H502        H  0.51299227  0.11309349  0.63103855     0.08490
H503        H  0.04843976  0.09180028  0.64358393     0.08490
H504        H  0.04398277  0.13338061  0.65388237     0.05270
C505        C  0.00648484  0.11062134  0.89023366    -0.20540
C506        C  0.01916157  0.09756182  0.86116428    -0.07100
C507        C  0.02904594  0.06463142  0.86433897     0.13770
C508        C  0.51979361  0.04440795  0.89421635    -0.20590
C509        C  0.50434070  0.05728829  0.92227593    -0.07110
C510        C  0.50109613  0.09188281  0.92067927     0.13750
C511        C  0.49260781  0.11024454  0.95080143    -0.23940
H512        H  0.99899853  0.13551047  0.88961549     0.15040
H513        H  0.52532157  0.01871650  0.89570238     0.15070
C514        C  0.05096948  0.05061664  0.83792677    -0.23890
H515        H  0.49672970  0.13752980  0.94521437     0.05280
H516        H  0.00903617  0.10361140  0.97062425     0.08510
H517        H  0.46585888  0.10461833  0.95965335     0.08510
H518        H  0.06104593  0.06959008  0.81771740     0.08490
H519        H  0.03683558  0.02986066  0.82735162     0.08490
H520        H  0.07289656  0.04106415  0.84922479     0.05270
C521        C  0.00785507  0.23115526  0.79063775    -0.20540
C522        C  0.48969114  0.20247157  0.80590868    -0.07100
C523        C  0.45969857  0.20524419  0.82579552     0.13770
C524        C  0.44845757  0.23665359  0.82971427    -0.20590
C525        C  0.46643549  0.26548864  0.81431039    -0.07110
C526        C  0.49684347  0.26269595  0.79484765     0.13750
C527        C  0.51866666  0.29280655  0.77973034    -0.23940
H528        H  0.03096941  0.22884050  0.77571585     0.15040
H529        H  0.42537793  0.23874963  0.84478634     0.15070
C530        C  0.43925470  0.17499611  0.84258936    -0.23890
H531        H  0.04279541  0.28602493  0.76811474     0.05280
H532        H  0.02426991  0.30967202  0.79934895     0.08510
H533        H  0.50619798  0.30604158  0.75992255     0.08510
H534        H  0.45397758  0.16196964  0.86069256     0.08490
H535        H  0.43197659  0.15796216  0.82363886     0.08490
H536        H  0.41609605  0.18152341  0.85639567     0.05270
C537        C  0.14250312  0.04742909  0.95260926    -0.20540
C538        C  0.16767564  0.02630291  0.95814378    -0.07100
C539        C  0.16339725  0.00243252  0.98601486     0.13770
C540        C  0.13371221  0.49962224  0.50684159    -0.20590
C541        C  0.10823060  0.01981139  0.00050435    -0.07110
C542        C  0.11270945  0.04439604  0.97352900     0.13750
C543        C  0.08555695  0.06657487  0.96624514    -0.23940
H544        H  0.14577110  0.06559638  0.93129943     0.15040
H545        H  0.12960239  0.48038843  0.52720436     0.15070
C546        C  0.18911254  0.47857904  0.99317349    -0.23890
H547        H  0.09312941  0.08460107  0.94439287     0.05280
H548        H  0.07953112  0.08062553  0.98816720     0.08510
H549        H  0.06283751  0.05142075  0.96080438     0.08510
H550        H  0.21130320  0.99222324  0.00170237     0.08490
H551        H  0.19610121  0.46587044  0.97057221     0.08490
H552        H  0.17974045  0.45924706  0.51338449     0.05420
C553        C  0.28590426  0.00089528  0.96877782    -0.20540
C554        C  0.28841764  0.02167608  0.93930733    -0.07100
C555        C  0.31940449  0.03943995  0.92821830     0.13770
C556        C  0.34717278  0.03550753  0.94696796    -0.20590
C557        C  0.34425095  0.01463888  0.97666197    -0.07110
C558        C  0.31270678  0.99802161  0.48817961     0.13750
C559        C  0.30630101  0.47819296  0.52163511    -0.23940
H560        H  0.26240314  0.98685042  0.97693537     0.15040
H561        H  0.37120892  0.04843673  0.93828499     0.15070
C562        C  0.32303829  0.06292615  0.89728683    -0.23890
H563        H  0.27925832  0.47102017  0.52813567     0.05280
H564        H  0.31532043  0.99321162  0.54152411     0.08510
H565        H  0.31880582  0.45489875  0.52142251     0.08510
H566        H  0.30501898  0.08202581  0.89976607     0.08490
H567        H  0.31822934  0.04921837  0.87518500     0.08490
H568        H  0.34859345  0.07572740  0.89297083     0.05270
C569        C  0.09308897  0.42474296  0.65689037    -0.20540
C570        C  0.07335931  0.45139530  0.65914462    -0.07100
C571        C  0.08040483  0.47497039  0.68237592     0.13770
C572        C  0.10944753  0.47369386  0.69922893    -0.20590
C573        C  0.13139704  0.44920683  0.69386479    -0.07110
C574        C  0.12184499  0.42311275  0.67417265     0.13750
C575        C  0.14140064  0.39330714  0.67066462    -0.23940
H576        H  0.08687472  0.40569931  0.64065596     0.15040
H577        H  0.11608168  0.49321270  0.71499991     0.15070
C578        C  0.05754432  0.50168620  0.68946339    -0.23890
H579        H  0.12457066  0.37040540  0.67755578     0.05280
H580        H  0.16207586  0.39271816  0.68716239     0.08510
H581        H  0.15179991  0.39299267  0.64441220     0.08510
H582        H  0.03162962  0.49039744  0.69610972     0.08490
H583        H  0.05808106  0.51978680  0.66748482     0.08490
H584        H  0.06520944  0.51569866  0.71059489     0.05270
C585        C  0.27027189  0.42836820  0.66593294    -0.20540
C586        C  0.25424500  0.45753815  0.66633456    -0.07100
C587        C  0.26659236  0.48519490  0.64440339     0.13770
C588        C  0.29557770  0.48329889  0.62321896    -0.20590
C589        C  0.31306496  0.45476769  0.62424580    -0.07110
C590        C  0.30011939  0.42692665  0.64602469     0.13750
C591        C  0.31802722  0.39627086  0.65114821    -0.23940
H592        H  0.26056407  0.40723444  0.68292338     0.15040
H593        H  0.30598070  0.00502662  0.60741570     0.15070
C594        C  0.25008515  0.01712064  0.64451978    -0.23890
H595        H  0.31840686  0.38956486  0.67818128     0.05280
H596        H  0.34422538  0.39972078  0.64022819     0.08510
H597        H  0.30424372  0.37536273  0.64053034     0.08510
H598        H  0.25011364  0.02650333  0.66964714     0.08490
H599        H  0.22392394  0.01283551  0.63803262     0.08490
H600        H  0.26329001  0.03652845  0.62623131     0.05270
C601        C  0.19343608  0.46090778  0.80884834    -0.20540
C602        C  0.20905486  0.48031147  0.78080309    -0.07100
C603        C  0.22827299  0.51014531  0.78562788     0.13770
C604        C  0.23158862  0.01937626  0.81816824    -0.20590
C605        C  0.21581697  0.00008264  0.84610773    -0.07110
C606        C  0.19657025  0.47031908  0.84137585     0.13750
C607        C  0.18022207  0.94774364  0.87045818    -0.23940
H608        H  0.17876646  0.43810141  0.80523851     0.15040
H609        H  0.24622892  0.04217653  0.82188229     0.15070
C610        C  0.24404973  0.53334144  0.75672507    -0.23890
H611        H  0.16834234  0.42446974  0.86221383     0.05280
H612        H  0.16037898  0.95998681  0.88407338     0.08510
H613        H  0.19920322  0.44102951  0.88766289     0.08510
H614        H  0.22493033  0.53953067  0.73948264     0.08490
H615        H  0.26456280  0.52202248  0.74313208     0.08490
H616        H  0.25504712  0.55689503  0.76518734     0.05270
C617        C  0.37191886  0.12150164  0.56468827    -0.20540
C618        C  0.37141927  0.09806039  0.59237685    -0.07100
C619        C  0.35029286  0.10235040  0.62136232     0.13770
C620        C  0.33152239  0.13024898  0.62188751    -0.20590
C621        C  0.33293443  0.15338428  0.59410557    -0.07110
C622        C  0.35316914  0.14868994  0.56508352     0.13750
C623        C  0.35644263  0.17225987  0.53394941    -0.23940
H624        H  0.38744849  0.11916425  0.54198408     0.15040
H625        H  0.31609429  0.13432949  0.64415784     0.15070
C626        C  0.34726270  0.07809979  0.65173941    -0.23890
H627        H  0.34870557  0.15867036  0.51257947     0.05280
H628        H  0.38291307  0.18233474  0.52851903     0.08510
H629        H  0.34108974  0.19350964  0.53567331     0.08510
H630        H  0.37189460  0.07703014  0.66207443     0.08490
H631        H  0.33800884  0.05317029  0.64508310     0.08490
H632        H  0.32938219  0.08536467  0.67167309     0.05270
C633        C  0.33736834  0.30441965  0.59603279    -0.20540
C634        C  0.35279060  0.27488742  0.59381015    -0.07100
C635        C  0.38849239  0.27703846  0.58998561     0.13770
C636        C  0.40674016  0.30838835  0.58887551    -0.20590
C637        C  0.39062623  0.33766432  0.58682298    -0.07110
C638        C  0.35517278  0.33513031  0.58799419     0.13750
C639        C  0.33532052  0.36331879  0.57688520    -0.23940
H640        H  0.31043864  0.30355123  0.60027212     0.15040
H641        H  0.43380665  0.31013443  0.58677775     0.15070
C642        C  0.40804347  0.24752081  0.58469441    -0.23890
H643        H  0.30793308  0.35704668  0.58156563     0.05280
H644        H  0.34071804  0.36935752  0.54962963     0.08510
H645        H  0.34183416  0.38552789  0.58966235     0.08510
H646        H  0.39746756  0.23281292  0.56532870     0.08490
H647        H  0.40835640  0.23214148  0.60846465     0.08490
H648        H  0.43456398  0.25519464  0.57599586     0.05270
C649        C  0.03769444  0.18628501  0.02095441    -0.20540
C650        C  0.06857833  0.18963594  0.53510490    -0.07100
C651        C  0.07556339  0.16442043  0.55899876     0.13770
C652        C  0.05586541  0.13434958  0.56226819    -0.20590
C653        C  0.02612262  0.12975272  0.54631793    -0.07110
C654        C  0.01529904  0.15765825  0.52837041     0.13750
C655        C  0.47973520  0.15895384  0.01967528    -0.23940
H656        H  0.03063977  0.20630269  0.00448579     0.15040
H657        H  0.06362857  0.11467286  0.57872501     0.15070
C658        C  0.10204503  0.16864671  0.58319653    -0.23890
H659        H  0.47547620  0.18352428  0.00758611     0.05280
H660        H  0.46264167  0.15445738  0.04279845     0.08510
H661        H  0.47290830  0.14027033  0.00252777     0.08510
H662        H  0.11234926  0.19467797  0.58371949     0.08490
H663        H  0.12251097  0.15280020  0.57720895     0.08490
H664        H  0.09088081  0.16096599  0.60890946     0.05270
C665        C  0.05825128  0.35675208  0.99939982    -0.20540
C666        C  0.05291052  0.36686415  0.53185651    -0.07100
C667        C  0.06802073  0.35011604  0.55816193     0.13770
C668        C  0.08629821  0.32315172  0.55167155    -0.20590
C669        C  0.08973606  0.31197043  0.51985191    -0.07110
C670        C  0.07626084  0.32924379  0.99320029     0.13750
C671        C  0.08057290  0.31830769  0.95846328    -0.23940
H672        H  0.04724728  0.36955011  0.97904772     0.15040
H673        H  0.09683388  0.30966896  0.57194481     0.15070
C674        C  0.06568729  0.36058267  0.59319083    -0.23890
H675        H  0.06888629  0.33469753  0.94036688     0.05280
H676        H  0.06882309  0.29270307  0.95796990     0.08510
H677        H  0.10759701  0.31888386  0.95038645     0.08510
H678        H  0.03986198  0.35506606  0.60502869     0.08490
H679        H  0.07328934  0.38746803  0.59233710     0.08490
H680        H  0.08239129  0.34739715  0.60919597     0.05270
C681        C  0.20474206  0.22070914  0.51577876    -0.20540
C682        C  0.18413093  0.24138592  0.53284281    -0.07100
C683        C  0.19459514  0.25410572  0.56245062     0.13770
C684        C  0.22515776  0.24609421  0.57384634    -0.20590
C685        C  0.24561919  0.22530752  0.55700759    -0.07110
C686        C  0.23542401  0.21264450  0.52737541     0.13750
C687        C  0.25709566  0.19143440  0.50746066    -0.23940
H688        H  0.19654766  0.21052190  0.49344755     0.15040
H689        H  0.23310801  0.25589331  0.59646891     0.15070
C690        C  0.17306640  0.27479894  0.58329527    -0.23890
H691        H  0.24617693  0.18530187  0.48404373     0.05280
H692        H  0.25980514  0.16777407  0.52206100     0.08510
H693        H  0.28213554  0.20478209  0.50074689     0.08510
H694        H  0.14798759  0.26147515  0.58985218     0.08490
H695        H  0.17058009  0.29899383  0.56959818     0.08490
H696        H  0.18402714  0.28010272  0.60691593     0.05270
C697        C  0.10338639  0.77959725  0.51686916     0.02900
C698        C  0.13780422  0.77667175  0.01757681    -0.13250
C699        C  0.14982936  0.74528721  0.02247809     0.00400
C700        C  0.12729637  0.71697370  0.02339618    -0.11780
C701        C  0.09255357  0.71953677  0.52550632     0.02890
C702        C  0.08097714  0.75108958  0.52140516    -0.11200
H703        H  0.15484108  0.79881693  0.01640900     0.08480
H704        H  0.13670810  0.69280110  0.02608214     0.06010
H705        H  0.05442790  0.75386984  0.52411427     0.05860
C706        C  0.31670935  0.68443988  0.09601756     0.02900
C707        C  0.33658844  0.71257812  0.10306377    -0.13250
C708        C  0.33006173  0.74424952  0.09038856     0.00400
C709        C  0.30090372  0.74703111  0.07339504    -0.11780
C710        C  0.27826389  0.71960344  0.07039907     0.02890
C711        C  0.28659568  0.68798158  0.08133829    -0.11200
H712        H  0.35811635  0.70902735  0.11662588     0.08480
H713        H  0.29531910  0.77076065  0.06219540     0.06010
H714        H  0.27064026  0.66617965  0.07730256     0.05860
C715        C  0.16559291  0.95416845  0.20507081     0.02900
C716        C  0.17095689  0.96283012  0.23750604    -0.13250
C717        C  0.20361318  0.96956089  0.24692246     0.00400
C718        C  0.23082547  0.96606370  0.22383627    -0.11780
C719        C  0.22562538  0.95900443  0.19109215     0.02890
C720        C  0.19319743  0.95350527  0.18178171    -0.11200
H721        H  0.14975389  0.96483962  0.25523424     0.08480
H722        H  0.25608904  0.96912651  0.23111006     0.06010
H723        H  0.18949387  0.94875202  0.15621760     0.05860
C724        C  0.25694911  0.52541509  0.42314172     0.02900
C725        C  0.25253531  0.51484181  0.39126939    -0.13250
C726        C  0.22039758  0.51156751  0.37976263     0.00400
C727        C  0.19269355  0.51824318  0.40085600    -0.11780
C728        C  0.19685268  0.52735447  0.43321742     0.02890
C729        C  0.22903000  0.53296673  0.44320078    -0.11200
H730        H  0.27361794  0.50745386  0.37615782     0.08480
H731        H  0.16779319  0.51511676  0.39263522     0.06010
H732        H  0.23215042  0.54041537  0.46806861     0.05860
C733        C  0.99997371  0.61976116  0.27160725     0.02900
C734        C  0.00947049  0.60185783  0.29988376    -0.13250
C735        C  0.01711284  0.61760718  0.32850440     0.00400
C736        C  0.01557654  0.65236563  0.32749306    -0.11780
C737        C  0.00205731  0.66960356  0.30113054     0.02890
C738        C  0.99558794  0.65354968  0.27256784    -0.11200
H739        H  0.00895107  0.57527344  0.29977085     0.08480
H740        H  0.02217167  0.66607787  0.34829938     0.06010
H741        H  0.98563604  0.66684179  0.25184016     0.05860
C742        C  0.43829822  0.83998243  0.35745563     0.02900
C743        C  0.44793699  0.80807098  0.35238977    -0.13250
C744        C  0.45341132  0.79809597  0.31986952     0.00400
C745        C  0.44727296  0.81974215  0.29271320    -0.11780
C746        C  0.43798422  0.85159716  0.29771050     0.02890
C747        C  0.43320143  0.86144493  0.32993669    -0.11200
H748        H  0.45231096  0.79151070  0.37356114     0.08480
H749        H  0.45058564  0.81224474  0.26758074     0.06010
H750        H  0.42720685  0.88654384  0.33348544     0.05860
O751        O  0.02951166  0.91714328  0.01436199    -0.86720
O752        O  0.42564035  0.95961426  0.16888757    -0.86890
O753        O  0.02688789  0.93180318  0.12997990    -0.88550
O754        O  0.43748197  0.87638991  0.09591168    -0.87310
O755        O  0.39824727  0.89127016  0.06105838    -0.86900
O756        O  0.04902151  0.98586278  0.12066709    -0.88270
O757        O  0.45720013  0.91712579  0.15524592    -0.86750
O758        O  0.01458855  0.89245768  0.06685602    -0.86340
Zr759      Zr  0.47773944  0.92605165  0.09729757     2.84310
O760        O  0.42425603  0.94481540  0.09803816    -1.08310
O761        O  0.01589178  0.96312178  0.06300504    -1.09040
C762        C  0.03100734  0.89404307  0.03798863     1.06390
C763        C  0.43951005  0.93256749  0.17592050     1.06330
C764        C  0.04798521  0.95639290  0.13505449     1.09310
C765        C  0.41046282  0.87039213  0.08093787     1.07090
H766        H  0.48531302  0.97788435  0.14000959     0.32650
O767        O  0.47838440  0.97862801  0.11765456    -1.29260
H768        H  0.46133819  0.90815852  0.03495085     0.32320
O769        O  0.46157643  0.92991043  0.04306896    -1.30940
O770        O  0.39505877  0.54778715  0.11266427    -0.86710
O771        O  0.50501665  0.00754987  0.45926917    -0.88210
O772        O  0.00794064  0.54385550  0.13450567    -0.86790
O773        O  0.35596291  0.94759240  0.08092456    -0.86840
O774        O  0.41633171  0.91888189  0.99326997    -0.86550
O775        O  0.06709274  0.52062196  0.04592318    -0.86360
O776        O  0.48193489  0.58880412  0.03434576    -0.86730
O777        O  0.39556727  0.53311808  0.99883921    -0.86190
O778        O  0.02290819  0.57388115  0.06686622    -0.87260
O779        O  0.37524203  0.97858640  0.00666019    -0.86410
O780        O  0.45314722  0.53300769  0.15465744    -0.86810
O781        O  0.05620003  0.99080973  0.00120819    -0.86530
O782        O  0.47065045  0.93168417  0.47205906    -0.86180
O783        O  0.36787250  0.97560646  0.12651240    -0.86590
O784        O  0.40899371  0.57037090  0.05945405    -0.86890
O785        O  0.47097214  0.54753674  0.47308990    -0.88230
Zr786      Zr  0.42521455  0.99744025  0.11828589     2.83100
Zr787      Zr  0.49906686  0.96704134  0.00856885     2.83500
Zr788      Zr  0.01569371  0.51556316  0.08342548     2.84090
Zr789      Zr  0.40824882  0.94867318  0.04356672     2.83360
Zr790      Zr  0.44595033  0.53738061  0.02954991     2.84220
O791        O  0.44537265  0.98535161  0.00823767    -1.08800
O792        O  0.46252954  0.53447171  0.08382779    -1.08300
C793        C  0.39315972  0.57013451  0.08842748     1.06360
C794        C  0.49266655  0.53565969  0.45330343     1.08980
C795        C  0.48295279  0.54667254  0.15588700     1.06530
C796        C  0.34795159  0.95888297  0.10949223     1.06890
C797        C  0.44139796  0.91625322  0.47184210     1.06480
C798        C  0.07505654  0.00984803  0.01727657     1.06030
C799        C  0.00859546  0.59551422  0.04944720     1.06450
C800        C  0.37390792  0.50867293  0.99493125     1.05970
H801        H  0.01458523  0.53509021  0.01573985     0.32650
O802        O  0.49926080  0.51919587  0.02938309    -1.29900
H803        H  0.38609001  0.50791198  0.06405643     0.32670
O804        O  0.40830456  0.00066443  0.06404760    -1.31280
C805        C  0.46607947  0.91567189  0.22634626    -0.20540
C806        C  0.43653318  0.91774755  0.21047843    -0.07100
C807        C  0.40672313  0.90025554  0.22510753     0.13770
C808        C  0.40737691  0.87958601  0.25444767    -0.20590
C809        C  0.43735270  0.87605748  0.26907157    -0.07110
C810        C  0.46680184  0.89511042  0.25563721     0.13750
C811        C  0.49912195  0.89304735  0.27172833    -0.23940
H812        H  0.48899838  0.92904776  0.21488992     0.15040
H813        H  0.38482455  0.86510455  0.26523135     0.15070
C814        C  0.37492437  0.90152967  0.20846342    -0.23890
H815        H  0.01972865  0.90964441  0.25797439     0.05280
H816        H  0.50651095  0.86733461  0.27225660     0.08510
H817        H  0.49594820  0.90043075  0.29762685     0.08510
H818        H  0.37864061  0.89179906  0.18364460     0.08490
H819        H  0.36816141  0.92746103  0.20550943     0.08490
H820        H  0.35393603  0.88624203  0.22313150     0.05270
C821        C  0.40802078  0.86631861  0.40302860    -0.20540
C822        C  0.43739124  0.85338803  0.39060205    -0.07100
C823        C  0.46690633  0.85900795  0.40669897     0.13770
C824        C  0.46655963  0.87823818  0.43402830    -0.20590
C825        C  0.43777599  0.89288528  0.44543714    -0.07110
C826        C  0.40774613  0.88596926  0.43029682     0.13750
C827        C  0.37586610  0.90045028  0.44140172    -0.23940
H828        H  0.38555052  0.86222341  0.39028522     0.15040
H829        H  0.48946806  0.88271021  0.44598181     0.15070
C830        C  0.49948250  0.84676471  0.39390980    -0.23890
H831        H  0.35540739  0.89365582  0.42564491     0.05280
H832        H  0.37995015  0.92789452  0.43975492     0.08510
H833        H  0.36745255  0.89092565  0.46742925     0.08510
H834        H  0.50586415  0.85616051  0.36745738     0.08490
H835        H  0.49754863  0.81931906  0.39607759     0.08490
H836        H  0.02042826  0.85532196  0.40832551     0.05270
C837        C  0.46880540  0.55605950  0.21480732    -0.20540
C838        C  0.48818675  0.56632215  0.18479620    -0.07100
C839        C  0.00995900  0.59567894  0.18297805     0.13770
C840        C  0.01241352  0.61321236  0.21152139    -0.20590
C841        C  0.99338861  0.60244314  0.24156048    -0.07110
C842        C  0.47049723  0.57404068  0.24286395     0.13750
C843        C  0.44666588  0.56245139  0.27294280    -0.23940
H844        H  0.45165036  0.53390472  0.21636423     0.15040
H845        H  0.02973963  0.63516903  0.21060496     0.15070
C846        C  0.02995556  0.60922176  0.15107269    -0.23890
H847        H  0.42071516  0.56032214  0.26543726     0.05280
H848        H  0.44717718  0.57972524  0.29287945     0.08510
H849        H  0.95268770  0.53776143  0.28325439     0.08510
H850        H  0.51299235  0.61309345  0.13103848     0.08490
H851        H  0.04843983  0.59180025  0.14358386     0.08490
H852        H  0.04398284  0.63338058  0.15388230     0.05270
C853        C  0.00648496  0.61062130  0.39023359    -0.20540
C854        C  0.01916167  0.59756177  0.36116421    -0.07100
C855        C  0.02904602  0.56463136  0.36433890     0.13770
C856        C  0.51979370  0.54440792  0.39421631    -0.20590
C857        C  0.50434079  0.55728827  0.42227588    -0.07110
C858        C  0.50109620  0.59188280  0.42067920     0.13750
C859        C  0.49260787  0.61024453  0.45080134    -0.23940
H860        H  0.99899867  0.63551043  0.38961542     0.15040
H861        H  0.52532167  0.51871648  0.39570234     0.15070
C862        C  0.05096952  0.55061655  0.33792669    -0.23890
H863        H  0.49672974  0.63752979  0.44521427     0.05280
H864        H  0.00903632  0.60361137  0.47062419     0.08510
H865        H  0.46585895  0.60461832  0.45965327     0.08510
H866        H  0.06104597  0.56958999  0.31771732     0.08490
H867        H  0.03683560  0.52986058  0.32735155     0.08490
H868        H  0.07289660  0.54106404  0.34922469     0.05270
C869        C  0.00785530  0.73115525  0.29063777    -0.20540
C870        C  0.48969134  0.70247157  0.30590863    -0.07100
C871        C  0.45969876  0.70524420  0.32579546     0.13770
C872        C  0.44845781  0.73665360  0.32971427    -0.20590
C873        C  0.46643577  0.76548865  0.31431045    -0.07110
C874        C  0.49684375  0.76269595  0.29484772     0.13750
C875        C  0.51866698  0.79280656  0.27973047    -0.23940
H876        H  0.03096963  0.72884048  0.27571587     0.15040
H877        H  0.42537815  0.73874966  0.34478633     0.15070
C878        C  0.43925484  0.67499611  0.34258924    -0.23890
H879        H  0.04279571  0.78602491  0.26811484     0.05280
H880        H  0.02427025  0.80967196  0.29934911     0.08510
H881        H  0.50619834  0.80604167  0.25992271     0.08510
H882        H  0.45397769  0.66196959  0.36069243     0.08490
H883        H  0.43197672  0.65796222  0.32363871     0.08490
H884        H  0.41609619  0.68152342  0.35639557     0.05270
C885        C  0.14250322  0.54742909  0.45260923    -0.20540
C886        C  0.16767573  0.52630290  0.45814373    -0.07100
C887        C  0.16339733  0.50243250  0.48601481     0.13770
C888        C  0.13371212  0.99962225  0.00684163    -0.20590
C889        C  0.10823070  0.51981140  0.50050432    -0.07110
C890        C  0.11270955  0.54439605  0.47352898     0.13750
C891        C  0.08555706  0.56657490  0.46624513    -0.23940
H892        H  0.14577120  0.56559638  0.43129940     0.15040
H893        H  0.12960231  0.98038844  0.02720441     0.15070
C894        C  0.18911247  0.97857914  0.49317353    -0.23890
H895        H  0.09312952  0.58460110  0.44439286     0.05280
H896        H  0.07953124  0.58062555  0.48816719     0.08510
H897        H  0.06283761  0.55142079  0.46080438     0.08510
H898        H  0.21130328  0.49222318  0.50170230     0.08490
H899        H  0.19610115  0.96587056  0.47057223     0.08490
H900        H  0.17974039  0.95924710  0.01338456     0.05420
C901        C  0.28590434  0.50089525  0.46877778    -0.20540
C902        C  0.28841772  0.52167605  0.43930728    -0.07100
C903        C  0.31940457  0.53943992  0.42821825     0.13770
C904        C  0.34717286  0.53550752  0.44696792    -0.20590
C905        C  0.34425104  0.51463888  0.47666194    -0.07110
C906        C  0.31270684  0.49802155  0.98817959     0.13750
C907        C  0.30630093  0.97819298  0.02163515    -0.23940
H908        H  0.26240322  0.48685038  0.47693533     0.15040
H909        H  0.37120899  0.54843672  0.43828496     0.15070
C910        C  0.32303836  0.56292613  0.39728678    -0.23890
H911        H  0.27925824  0.97102020  0.02813571     0.05280
H912        H  0.31532051  0.49321163  0.04152409     0.08510
H913        H  0.31880573  0.95489876  0.02142254     0.08510
H914        H  0.30501904  0.58202578  0.39976602     0.08490
H915        H  0.31822942  0.54921834  0.37518495     0.08490
H916        H  0.34859352  0.57572738  0.39297078     0.05270
C917        C  0.09308899  0.92474315  0.15689037    -0.20540
C918        C  0.07335912  0.95139533  0.15914472    -0.07100
C919        C  0.08040446  0.97497038  0.18237611     0.13770
C920        C  0.10944719  0.97369403  0.19922909    -0.20590
C921        C  0.13139691  0.94920720  0.19386482    -0.07110
C922        C  0.12184503  0.92311311  0.17417263     0.13750
C923        C  0.14140091  0.89330767  0.17066451    -0.23940
H924        H  0.08687489  0.90569953  0.14065587     0.15040
H925        H  0.11608121  0.99321287  0.21500011     0.15070
C926        C  0.05754373  0.00168599  0.18946367    -0.23890
H927        H  0.12457109  0.87040581  0.17755563     0.05280
H928        H  0.16207615  0.89271880  0.18716227     0.08510
H929        H  0.15180019  0.89299331  0.14441208     0.08510
H930        H  0.03162910  0.99039704  0.19610997     0.08490
H931        H  0.05808035  0.01978663  0.16748515     0.08490
H932        H  0.06520874  0.01569844  0.21059521     0.05270
C933        C  0.27027167  0.92836892  0.16593303    -0.20540
C934        C  0.25424483  0.95753890  0.16633437    -0.07100
C935        C  0.26659221  0.98519546  0.14440296     0.13770
C936        C  0.29557754  0.98329924  0.12321857    -0.20590
C937        C  0.31306478  0.95476801  0.12424570    -0.07110
C938        C  0.30011917  0.92692718  0.14602485     0.13750
C939        C  0.31802701  0.89627145  0.15114878    -0.23940
H940        H  0.26056384  0.90723531  0.18292366     0.15040
H941        H  0.30598078  0.50502653  0.10741574     0.15070
C942        C  0.25008522  0.51712051  0.14451981    -0.23890
H943        H  0.31840650  0.88956572  0.17818191     0.05280
H944        H  0.34422522  0.89972134  0.14022891     0.08510
H945        H  0.30424359  0.87536318  0.14053104     0.08510
H946        H  0.25011370  0.52650318  0.16964718     0.08490
H947        H  0.22392401  0.51283538  0.13803265     0.08490
H948        H  0.26329008  0.53652833  0.12623135     0.05270
C949        C  0.19343608  0.96090831  0.30884819    -0.20540
C950        C  0.20905478  0.98031214  0.28080299    -0.07100
C951        C  0.22827285  0.01014598  0.28562787     0.13770
C952        C  0.23158870  0.51937618  0.31816819    -0.20590
C953        C  0.21581704  0.50008258  0.34610769    -0.07110
C954        C  0.19657026  0.97031950  0.34137575     0.13750
C955        C  0.18022211  0.44774361  0.37045816    -0.23940
H956        H  0.17876651  0.93810193  0.30523830     0.15040
H957        H  0.24622901  0.54217644  0.32188223     0.15070
C958        C  0.24404950  0.03334224  0.25672512    -0.23890
H959        H  0.16834244  0.92447007  0.36221359     0.05280
H960        H  0.16037903  0.45998680  0.38407335     0.08510
H961        H  0.19920334  0.94102977  0.38766266     0.08510
H962        H  0.22493007  0.03953149  0.23948275     0.08490
H963        H  0.26456259  0.02202339  0.24313205     0.08490
H964        H  0.25504684  0.05689582  0.26518747     0.05270
C965        C  0.37191842  0.62150119  0.06468785    -0.20540
C966        C  0.37141916  0.59806023  0.09237663    -0.07100
C967        C  0.35029305  0.60235051  0.12136222     0.13770
C968        C  0.33152259  0.63024909  0.12188734    -0.20590
C969        C  0.33293436  0.65338415  0.09410523    -0.07110
C970        C  0.35316874  0.64868952  0.06508306     0.13750
C971        C  0.35644200  0.67225922  0.03394878    -0.23940
H972        H  0.38744776  0.61916356  0.04198354     0.15040
H973        H  0.31609474  0.63432983  0.14415776     0.15070
C974        C  0.34726324  0.57810019  0.15173952    -0.23890
H975        H  0.34870465  0.65866955  0.01257905     0.05280
H976        H  0.38291243  0.68233400  0.02851809     0.08510
H977        H  0.34108921  0.69350907  0.03567267     0.08510
H978        H  0.37189529  0.57703065  0.16207426     0.08490
H979        H  0.33800926  0.55317060  0.14508357     0.08490
H980        H  0.32938296  0.58536527  0.17167331     0.05270
C981        C  0.33736848  0.80441946  0.09603271    -0.20540
C982        C  0.35279076  0.77488730  0.09380962    -0.07100
C983        C  0.38849253  0.77703838  0.08998473     0.13770
C984        C  0.40674030  0.80838824  0.08887477    -0.20590
C985        C  0.39062632  0.83766421  0.08682280    -0.07110
C986        C  0.35517286  0.83513019  0.08799438     0.13750
C987        C  0.33532051  0.86331883  0.07688606    -0.23940
H988        H  0.31043878  0.80355098  0.10027220     0.15040
H989        H  0.43380680  0.81013435  0.08677670     0.15070
C990        C  0.40804355  0.74752078  0.08469293    -0.23890
H991        H  0.30793309  0.85704677  0.08156691     0.05280
H992        H  0.34071759  0.86935781  0.04963049     0.08510
H993        H  0.34183452  0.88552775  0.08966334     0.08510
H994        H  0.39746737  0.73281312  0.06532718     0.08490
H995        H  0.40835672  0.73214119  0.10846297     0.08490
H996        H  0.43456399  0.75519469  0.07599413     0.05270
C997        C  0.03769446  0.68628506  0.52095441    -0.20540
C998        C  0.06857829  0.68963594  0.03510492    -0.07100
C999        C  0.07556338  0.66442042  0.05899875     0.13770
C1000       C  0.05586543  0.63434955  0.06226816    -0.20590
C1001       C  0.02612265  0.62975268  0.04631789    -0.07110
C1002       C  0.01529903  0.65765821  0.02837041     0.13750
C1003       C  0.47973525  0.65895385  0.51967522    -0.23940
H1004       H  0.03063978  0.70630274  0.50448579     0.15040
H1005       H  0.06362862  0.61467282  0.07872495     0.15070
C1006       C  0.10204503  0.66864669  0.08319651    -0.23890
H1007       H  0.47547623  0.68352428  0.50758606     0.05280
H1008       H  0.46264169  0.65445736  0.54279837     0.08510
H1009       H  0.47290840  0.64027035  0.50252769     0.08510
H1010       H  0.11234926  0.69467796  0.08371948     0.08490
H1011       H  0.12251098  0.65280020  0.07720890     0.08490
H1012       H  0.09088083  0.66096596  0.10890944     0.05270
C1013       C  0.05825126  0.85675216  0.49939986    -0.20540
C1014       C  0.05291048  0.86686419  0.03185651    -0.07100
C1015       C  0.06802074  0.85011613  0.05816192     0.13770
C1016       C  0.08629820  0.82315179  0.05167154    -0.20590
C1017       C  0.08973599  0.81197046  0.01985193    -0.07110
C1018       C  0.07626083  0.82924387  0.49320034     0.13750
C1019       C  0.08057290  0.81830778  0.45846333    -0.23940
H1020       H  0.04724727  0.86955020  0.47904775     0.15040
H1021       H  0.09683391  0.80966906  0.07194480     0.15070
C1022       C  0.06568737  0.86058282  0.09319080    -0.23890
H1023       H  0.06888632  0.83469763  0.44036692     0.05280
H1024       H  0.06882309  0.79270316  0.45796994     0.08510
H1025       H  0.10759702  0.81888394  0.45038652     0.08510
H1026       H  0.03986208  0.85506622  0.10502871     0.08490
H1027       H  0.07328942  0.88746818  0.09233702     0.08490
H1028       H  0.08239141  0.84739732  0.10919592     0.05270
C1029       C  0.20474197  0.72070915  0.01577860    -0.20540
C1030       C  0.18413090  0.74138595  0.03284269    -0.07100
C1031       C  0.19459518  0.75410577  0.06245045     0.13770
C1032       C  0.22515783  0.74609425  0.07384611    -0.20590
C1033       C  0.24561920  0.72530754  0.05700733    -0.07110
C1034       C  0.23542395  0.71264450  0.02737519     0.13750
C1035       C  0.25709553  0.69143436  0.00746041    -0.23940
H1036       H  0.19654752  0.71052189  0.99344742     0.15040
H1037       H  0.23310814  0.75589337  0.09646865     0.15070
C1038       C  0.17306651  0.77479902  0.08329514    -0.23890
H1039       H  0.24617673  0.68530181  0.98404353     0.05280
H1040       H  0.25980503  0.66777404  0.02206077     0.08510
H1041       H  0.28213540  0.70478203  0.00074658     0.08510
H1042       H  0.14798770  0.76147525  0.08985210     0.08490
H1043       H  0.17058019  0.79899391  0.06959804     0.08490
H1044       H  0.18402731  0.78010281  0.10691576     0.05270
C1045       C  0.10338641  0.77959718  0.01686912     0.02900
C1046       C  0.13780420  0.77667182  0.51757684    -0.13250
C1047       C  0.14982935  0.74528728  0.52247811     0.00400
C1048       C  0.12729637  0.71697378  0.52339621    -0.11780
C1049       C  0.09255357  0.71953670  0.02550628     0.02890
C1050       C  0.08097716  0.75108951  0.02140511    -0.11200
H1051       H  0.15484107  0.79881701  0.51640903     0.08480
H1052       H  0.13670810  0.69280118  0.52608216     0.06010
H1053       H  0.05442791  0.75386978  0.02411422     0.05860
C1054       C  0.31670937  0.68443991  0.59601747     0.02900
C1055       C  0.33658848  0.71257814  0.60306367    -0.13250
C1056       C  0.33006176  0.74424955  0.59038849     0.00400
C1057       C  0.30090374  0.74703115  0.57339499    -0.11780
C1058       C  0.27826389  0.71960348  0.57039902     0.02890
C1059       C  0.28659570  0.68798162  0.58133823    -0.11200
H1060       H  0.35811640  0.70902737  0.61662575     0.08480
H1061       H  0.29531910  0.77076069  0.56219538     0.06010
H1062       H  0.27064027  0.66617969  0.57730250     0.05860
C1063       C  0.16559285  0.95416858  0.70507082     0.02900
C1064       C  0.17095684  0.96283024  0.73750606    -0.13250
C1065       C  0.20361314  0.96956102  0.74692246     0.00400
C1066       C  0.23082542  0.96606384  0.72383626    -0.11780
C1067       C  0.22562532  0.95900459  0.69109213     0.02890
C1068       C  0.19319736  0.95350542  0.68178171    -0.11200
H1069       H  0.14975384  0.96483972  0.75523427     0.08480
H1070       H  0.25608899  0.96912665  0.73111004     0.06010
H1071       H  0.18949379  0.94875217  0.65621760     0.05860
C1072       C  0.25694902  0.52541495  0.92314170     0.02900
C1073       C  0.25253523  0.51484157  0.89126941    -0.13250
C1074       C  0.22039750  0.51156721  0.87976264     0.00400
C1075       C  0.19269347  0.51824293  0.90085598    -0.11780
C1076       C  0.19685259  0.52735430  0.93321737     0.02890
C1077       C  0.22902989  0.53296662  0.94320073    -0.11200
H1078       H  0.27361787  0.50745359  0.87615787     0.08480
H1079       H  0.16779311  0.51511648  0.89263519     0.06010
H1080       H  0.23215031  0.54041531  0.96806854     0.05860
C1081       C  0.99997372  0.61976117  0.77160727     0.02900
C1082       C  0.00947049  0.60185783  0.79988379    -0.13250
C1083       C  0.01711285  0.61760717  0.82850443     0.00400
C1084       C  0.01557656  0.65236563  0.82749308    -0.11780
C1085       C  0.00205734  0.66960356  0.80113056     0.02890
C1086       C  0.99558797  0.65354968  0.77256787    -0.11200
H1087       H  0.00895105  0.57527344  0.79977088     0.08480
H1088       H  0.02217170  0.66607787  0.84829940     0.06010
H1089       H  0.98563607  0.66684180  0.75184019     0.05860
C1090       C  0.43829825  0.83998242  0.85745559     0.02900
C1091       C  0.44793702  0.80807098  0.85238973    -0.13250
C1092       C  0.45341134  0.79809597  0.81986948     0.00400
C1093       C  0.44727297  0.81974216  0.79271316    -0.11780
C1094       C  0.43798424  0.85159716  0.79771047     0.02890
C1095       C  0.43320146  0.86144493  0.82993666    -0.11200
H1096       H  0.45231101  0.79151070  0.87356110     0.08480
H1097       H  0.45058565  0.81224474  0.76758070     0.06010
H1098       H  0.42720688  0.88654384  0.83348541     0.05860
O1099       O  0.02951160  0.91714333  0.51436201    -0.86720
O1100       O  0.42564031  0.95961431  0.66888758    -0.86890
O1101       O  0.02688783  0.93180324  0.62997992    -0.88550
O1102       O  0.43748193  0.87638996  0.59591168    -0.87310
O1103       O  0.39824722  0.89127022  0.56105840    -0.86900
O1104       O  0.04902146  0.98586284  0.62066710    -0.88270
O1105       O  0.45720008  0.91712583  0.65524593    -0.86750
O1106       O  0.01458850  0.89245774  0.56685603    -0.86340
Zr1107     Zr  0.47773939  0.92605171  0.59729759     2.84310
O1108       O  0.42425598  0.94481546  0.59803817    -1.08310
O1109       O  0.01589173  0.96312183  0.56300504    -1.09040
C1110       C  0.03100729  0.89404313  0.53798865     1.06390
C1111       C  0.43951000  0.93256753  0.67592051     1.06330
C1112       C  0.04798516  0.95639297  0.63505451     1.09310
C1113       C  0.41046278  0.87039218  0.58093787     1.07090
H1114       H  0.48531298  0.97788441  0.64000960     0.32650
O1115       O  0.47838436  0.97862807  0.61765457    -1.29260
H1116       H  0.46133812  0.90815857  0.53495087     0.32320
O1117       O  0.46157636  0.92991048  0.54306898    -1.30940
O1118       O  0.39505879  0.54778718  0.61266422    -0.86710
O1119       O  0.50501673  0.00754985  0.95926916    -0.88210
O1120       O  0.00794071  0.54385550  0.63450572    -0.86790
O1121       O  0.35596285  0.94759247  0.58092458    -0.86840
O1122       O  0.41633163  0.91888193  0.49326999    -0.86550
O1123       O  0.06709282  0.52062202  0.54592323    -0.86360
O1124       O  0.48193497  0.58880415  0.53434576    -0.86730
O1125       O  0.39556736  0.53311811  0.49883920    -0.86190
O1126       O  0.02290825  0.57388119  0.56686626    -0.87260
O1127       O  0.37524196  0.97858646  0.50666021    -0.86410
O1128       O  0.45314728  0.53300775  0.65465742    -0.86810
O1129       O  0.05619995  0.99080977  0.50120819    -0.86530
O1130       O  0.47065052  0.93168414  0.97205903    -0.86180
O1131       O  0.36787243  0.97560656  0.62651240    -0.86590
O1132       O  0.40899378  0.57037095  0.55945401    -0.86890
O1133       O  0.47097204  0.54753672  0.97308990    -0.88230
Zr1134     Zr  0.42521451  0.99744030  0.61828590     2.83100
Zr1135     Zr  0.49906678  0.96704139  0.50856887     2.83500
Zr1136     Zr  0.01569379  0.51556319  0.58342551     2.84090
Zr1137     Zr  0.40824875  0.94867324  0.54356674     2.83360
Zr1138     Zr  0.44595042  0.53738064  0.52954991     2.84220
O1139       O  0.44537257  0.98535167  0.50823769    -1.08800
O1140       O  0.46252963  0.53447176  0.58382779    -1.08300
C1141       C  0.39315976  0.57013454  0.58842742     1.06360
C1142       C  0.49266644  0.53565967  0.95330343     1.08980
C1143       C  0.48295285  0.54667257  0.65588702     1.06530
C1144       C  0.34795153  0.95888306  0.60949223     1.06890
C1145       C  0.44139804  0.91625319  0.97184207     1.06480
C1146       C  0.07505647  0.00984807  0.51727656     1.06030
C1147       C  0.00859553  0.59551426  0.54944723     1.06450
C1148       C  0.37390801  0.50867296  0.49493124     1.05970
H1149       H  0.01458532  0.53509024  0.51573988     0.32650
O1150       O  0.49926089  0.51919590  0.52938311    -1.29900
H1151       H  0.38609007  0.50791200  0.56405641     0.32670
O1152       O  0.40830450  0.00066449  0.56404762    -1.31280
C1153       C  0.46607941  0.91567198  0.72634629    -0.20540
C1154       C  0.43653313  0.91774758  0.71047843    -0.07100
C1155       C  0.40672310  0.90025548  0.72510749     0.13770
C1156       C  0.40737691  0.87958594  0.75444762    -0.20590
C1157       C  0.43735269  0.87605748  0.76907155    -0.07110
C1158       C  0.46680180  0.89511050  0.75563723     0.13750
C1159       C  0.49912191  0.89304747  0.77172835    -0.23940
H1160       H  0.48899830  0.92904790  0.71488997     0.15040
H1161       H  0.38482457  0.86510442  0.76523127     0.15070
C1162       C  0.37492436  0.90152952  0.70846334    -0.23890
H1163       H  0.01972856  0.90964460  0.75797449     0.05280
H1164       H  0.50651096  0.86733475  0.77225661     0.08510
H1165       H  0.49594812  0.90043084  0.79762688     0.08510
H1166       H  0.37864066  0.89179893  0.68364452     0.08490
H1167       H  0.36816133  0.92746086  0.70550935     0.08490
H1168       H  0.35393605  0.88624183  0.72313140     0.05270
C1169       C  0.40802083  0.86631860  0.90302857    -0.20540
C1170       C  0.43739129  0.85338802  0.89060201    -0.07100
C1171       C  0.46690639  0.85900794  0.90669892     0.13770
C1172       C  0.46655970  0.87823817  0.93402825    -0.20590
C1173       C  0.43777606  0.89288526  0.94543711    -0.07110
C1174       C  0.40774620  0.88596924  0.93029680     0.13750
C1175       C  0.37586616  0.90045026  0.94140171    -0.23940
H1176       H  0.38555057  0.86222340  0.89028521     0.15040
H1177       H  0.48946814  0.88271019  0.94598176     0.15070
C1178       C  0.49948255  0.84676471  0.89390974    -0.23890
H1179       H  0.35540745  0.89365580  0.92564491     0.05280
H1180       H  0.37995022  0.92789450  0.93975493     0.08510
H1181       H  0.36745262  0.89092562  0.96742925     0.08510
H1182       H  0.50586419  0.85616051  0.86745731     0.08490
H1183       H  0.49754869  0.81931906  0.89607752     0.08490
H1184       H  0.02042831  0.85532195  0.90832543     0.05270
C1185       C  0.46880544  0.55605954  0.71480733    -0.20540
C1186       C  0.48818680  0.56632218  0.68479621    -0.07100
C1187       C  0.00995905  0.59567895  0.68297808     0.13770
C1188       C  0.01241355  0.61321237  0.71152142    -0.20590
C1189       C  0.99338863  0.60244315  0.74156051    -0.07110
C1190       C  0.47049726  0.57404071  0.74286395     0.13750
C1191       C  0.44666589  0.56245144  0.77294280    -0.23940
H1192       H  0.45165038  0.53390477  0.71636423     0.15040
H1193       H  0.02973967  0.63516903  0.71060501     0.15070
C1194       C  0.02995562  0.60922177  0.65107273    -0.23890
H1195       H  0.42071518  0.56032220  0.76543725     0.05280
H1196       H  0.44717719  0.57972529  0.79287944     0.08510
H1197       H  0.95268768  0.53776145  0.78325439     0.08510
H1198       H  0.51299243  0.61309347  0.63103850     0.08490
H1199       H  0.04843989  0.59180026  0.64358391     0.08490
H1200       H  0.04398290  0.63338059  0.65388235     0.05270
C1201       C  0.00648502  0.61062130  0.89023363    -0.20540
C1202       C  0.01916168  0.59756175  0.86116423    -0.07100
C1203       C  0.02904597  0.56463132  0.86433890     0.13770
C1204       C  0.51979363  0.54440790  0.89421632    -0.20590
C1205       C  0.50434070  0.55728826  0.92227588    -0.07110
C1206       C  0.50109614  0.59188279  0.92067921     0.13750
C1207       C  0.49260780  0.61024452  0.95080136    -0.23940
H1208       H  0.99899879  0.63551045  0.88961548     0.15040
H1209       H  0.52532157  0.51871646  0.89570235     0.15070
C1210       C  0.05096945  0.55061649  0.83792670    -0.23890
H1211       H  0.49672969  0.63752978  0.94521429     0.05280
H1212       H  0.00903639  0.60361128  0.97062423     0.08510
H1213       H  0.46585887  0.60461831  0.95965327     0.08510
H1214       H  0.06104594  0.56958992  0.81771733     0.08490
H1215       H  0.03683550  0.52986055  0.82735154     0.08490
H1216       H  0.07289651  0.54106394  0.84922470     0.05270
C1217       C  0.00785531  0.73115524  0.79063776    -0.20540
C1218       C  0.48969138  0.70247158  0.80590864    -0.07100
C1219       C  0.45969880  0.70524421  0.82579546     0.13770
C1220       C  0.44845784  0.73665361  0.82971425    -0.20590
C1221       C  0.46643579  0.76548866  0.81431042    -0.07110
C1222       C  0.49684378  0.76269596  0.79484768     0.13750
C1223       C  0.51866700  0.79280657  0.77973042    -0.23940
H1224       H  0.03096963  0.72884047  0.77571585     0.15040
H1225       H  0.42537819  0.73874967  0.84478631     0.15070
C1226       C  0.43925489  0.67499613  0.84258926    -0.23890
H1227       H  0.04279569  0.78602491  0.76811478     0.05280
H1228       H  0.02427024  0.80967197  0.79934905     0.08510
H1229       H  0.50619834  0.80604167  0.75992266     0.08510
H1230       H  0.45397774  0.66196962  0.86069245     0.08490
H1231       H  0.43197678  0.65796221  0.82363873     0.08490
H1232       H  0.41609624  0.68152344  0.85639557     0.05270
C1233       C  0.14250312  0.54742896  0.95260914    -0.20540
C1234       C  0.16767563  0.52630276  0.95814367    -0.07100
C1235       C  0.16339723  0.50243240  0.98601477     0.13770
C1236       C  0.13371204  0.99962225  0.50684161    -0.20590
C1237       C  0.10823060  0.51981132  0.00050426    -0.07110
C1238       C  0.11270946  0.54439595  0.97352889     0.13750
C1239       C  0.08555697  0.56657479  0.96624502    -0.23940
H1240       H  0.14577111  0.56559622  0.93129929     0.15040
H1241       H  0.12960222  0.98038845  0.52720439     0.15070
C1242       C  0.18911257  0.97857917  0.99317357    -0.23890
H1243       H  0.09312944  0.58460097  0.94439273     0.05280
H1244       H  0.07953117  0.58062548  0.98816706     0.08510
H1245       H  0.06283752  0.55142068  0.96080428     0.08510
H1246       H  0.21130317  0.49222311  0.00170228     0.08490
H1247       H  0.19610126  0.96587059  0.97057227     0.08490
H1248       H  0.17974028  0.95924708  0.51338452     0.05420
C1249       C  0.28590425  0.50089521  0.96877781    -0.20540
C1250       C  0.28841762  0.52167595  0.93930728    -0.07100
C1251       C  0.31940448  0.53943981  0.92821822     0.13770
C1252       C  0.34717277  0.53550745  0.94696790    -0.20590
C1253       C  0.34425094  0.51463885  0.97666194    -0.07110
C1254       C  0.31270694  0.49802156  0.48817956     0.13750
C1255       C  0.30630086  0.97819303  0.52163517    -0.23940
H1256       H  0.26240313  0.48685034  0.97693538     0.15040
H1257       H  0.37120890  0.54843663  0.93828491     0.15070
C1258       C  0.32303826  0.56292597  0.89728672    -0.23890
H1259       H  0.27925817  0.97102024  0.52813573     0.05280
H1260       H  0.31532058  0.49321155  0.54152406     0.08510
H1261       H  0.31880566  0.95489881  0.52142257     0.08510
H1262       H  0.30501895  0.58202562  0.89976592     0.08490
H1263       H  0.31822932  0.54921813  0.87518491     0.08490
H1264       H  0.34859343  0.57572721  0.89297069     0.05270
C1265       C  0.09308894  0.92474323  0.65689040    -0.20540
C1266       C  0.07335906  0.95139540  0.65914475    -0.07100
C1267       C  0.08040438  0.97497045  0.68237613     0.13770
C1268       C  0.10944712  0.97369412  0.69922912    -0.20590
C1269       C  0.13139684  0.94920731  0.69386485    -0.07110
C1270       C  0.12184498  0.92311320  0.67417266     0.13750
C1271       C  0.14140088  0.89330777  0.67066455    -0.23940
H1272       H  0.08687485  0.90569961  0.64065590     0.15040
H1273       H  0.11608112  0.99321297  0.71500013     0.15070
C1274       C  0.05754365  0.00168606  0.68946369    -0.23890
H1275       H  0.12457106  0.87040591  0.67755567     0.05280
H1276       H  0.16207611  0.89271892  0.68716230     0.08510
H1277       H  0.15180015  0.89299342  0.64441211     0.08510
H1278       H  0.03162901  0.99039709  0.69610999     0.08490
H1279       H  0.05808026  0.01978669  0.66748517     0.08490
H1280       H  0.06520865  0.01569851  0.71059523     0.05270
C1281       C  0.27027160  0.92836906  0.66593303    -0.20540
C1282       C  0.25424476  0.95753904  0.66633435    -0.07100
C1283       C  0.26659215  0.98519559  0.64440293     0.13770
C1284       C  0.29557748  0.98329935  0.62321854    -0.20590
C1285       C  0.31306471  0.95476812  0.62424570    -0.07110
C1286       C  0.30011910  0.92692730  0.64602487     0.13750
C1287       C  0.31802694  0.89627158  0.65114883    -0.23940
H1288       H  0.26056376  0.90723545  0.68292368     0.15040
H1289       H  0.30598089  0.50502631  0.60741631     0.15070
C1290       C  0.25008531  0.51711991  0.64452056    -0.23890
H1291       H  0.31840641  0.88956587  0.67818197     0.05280
H1292       H  0.34422515  0.89972148  0.64022898     0.08510
H1293       H  0.30424353  0.87536330  0.64053111     0.08510
H1294       H  0.25011377  0.52650236  0.66964802     0.08490
H1295       H  0.22392410  0.51283483  0.63803337     0.08490
H1296       H  0.26329015  0.53652789  0.62623226     0.05270
C1297       C  0.19343607  0.96090840  0.80884819    -0.20540
C1298       C  0.20905476  0.98031224  0.78080299    -0.07100
C1299       C  0.22827283  0.01014608  0.78562787     0.13770
C1300       C  0.23158873  0.51937563  0.81816820    -0.20590
C1301       C  0.21581699  0.50008215  0.84610774    -0.07110
C1302       C  0.19657028  0.97031957  0.84137575     0.13750
C1303       C  0.18022195  0.44774329  0.87045835    -0.23940
H1304       H  0.17876649  0.93810202  0.80523830     0.15040
H1305       H  0.24622907  0.54217590  0.82188217     0.15070
C1306       C  0.24404946  0.03334236  0.75672513    -0.23890
H1307       H  0.16834246  0.92447013  0.86221358     0.05280
H1308       H  0.16037885  0.45998655  0.88407343     0.08510
H1309       H  0.19920339  0.94102980  0.88766264     0.08510
H1310       H  0.22493001  0.03953162  0.73948278     0.08490
H1311       H  0.26456254  0.02202352  0.74313204     0.08490
H1312       H  0.25504681  0.05689593  0.76518749     0.05270
C1313       C  0.37191834  0.62150114  0.56468773    -0.20540
C1314       C  0.37141917  0.59806024  0.59237655    -0.07100
C1315       C  0.35029314  0.60235058  0.62136219     0.13770
C1316       C  0.33152268  0.63024916  0.62188729    -0.20590
C1317       C  0.33293437  0.65338416  0.59410515    -0.07110
C1318       C  0.35316868  0.64868948  0.56508294     0.13750
C1319       C  0.35644187  0.67225914  0.53394864    -0.23940
H1320       H  0.38744762  0.61916346  0.54198339     0.15040
H1321       H  0.31609489  0.63432994  0.64415774     0.15070
C1322       C  0.34726342  0.57810033  0.65173954    -0.23890
H1323       H  0.34870446  0.65866944  0.51257895     0.05280
H1324       H  0.38291231  0.68233389  0.52851787     0.08510
H1325       H  0.34108911  0.69350900  0.53567254     0.08510
H1326       H  0.37189551  0.57703083  0.66207420     0.08490
H1327       H  0.33800941  0.55317072  0.64508367     0.08490
H1328       H  0.32938321  0.58536546  0.67167335     0.05270
C1329       C  0.33736848  0.80441948  0.59603271    -0.20540
C1330       C  0.35279077  0.77488733  0.59380956    -0.07100
C1331       C  0.38849254  0.77703842  0.58998462     0.13770
C1332       C  0.40674030  0.80838829  0.58887469    -0.20590
C1333       C  0.39062631  0.83766425  0.58682279    -0.07110
C1334       C  0.35517285  0.83513022  0.58799441     0.13750
C1335       C  0.33532047  0.86331887  0.57688617    -0.23940
H1336       H  0.31043878  0.80355097  0.60027223     0.15040
H1337       H  0.43380680  0.81013441  0.58677658     0.15070
C1338       C  0.40804356  0.74752084  0.58469274    -0.23890
H1339       H  0.30793305  0.85704680  0.58156707     0.05280
H1340       H  0.34071750  0.86935787  0.54963059     0.08510
H1341       H  0.34183451  0.88552777  0.58966346     0.08510
H1342       H  0.39746736  0.73281321  0.56532698     0.08490
H1343       H  0.40835678  0.73214122  0.60846275     0.08490
H1344       H  0.43456399  0.75519477  0.57599392     0.05270
C1345       C  0.03769445  0.68628501  0.02095437    -0.20540
C1346       C  0.06857829  0.68963600  0.53510496    -0.07100
C1347       C  0.07556340  0.66442048  0.55899880     0.13770
C1348       C  0.05586547  0.63434961  0.56226820    -0.20590
C1349       C  0.02612269  0.62975272  0.54631792    -0.07110
C1350       C  0.01529906  0.65765824  0.52837044     0.13750
C1351       C  0.47973522  0.65895383  0.01967522    -0.23940
H1352       H  0.03063978  0.70630270  0.00448575     0.15040
H1353       H  0.06362866  0.61467289  0.57872499     0.15070
C1354       C  0.10204505  0.66864678  0.58319655    -0.23890
H1355       H  0.47547621  0.68352427  0.00758605     0.05280
H1356       H  0.46264167  0.65445737  0.04279838     0.08510
H1357       H  0.47290833  0.64027033  0.00252770     0.08510
H1358       H  0.11234927  0.69467805  0.58371952     0.08490
H1359       H  0.12251101  0.65280029  0.57720895     0.08490
H1360       H  0.09088085  0.66096604  0.60890949     0.05270
C1361       C  0.05825130  0.85675211  0.99939984    -0.20540
C1362       C  0.05291045  0.86686425  0.53185653    -0.07100
C1363       C  0.06802072  0.85011620  0.55816194     0.13770
C1364       C  0.08629818  0.82315187  0.55167157    -0.20590
C1365       C  0.08973596  0.81197052  0.51985196    -0.07110
C1366       C  0.07626086  0.82924381  0.99320031     0.13750
C1367       C  0.08057293  0.81830773  0.95846330    -0.23940
H1368       H  0.04724731  0.86955015  0.97904773     0.15040
H1369       H  0.09683389  0.80966915  0.57194483     0.15070
C1370       C  0.06568734  0.86058290  0.59319082    -0.23890
H1371       H  0.06888635  0.83469759  0.94036689     0.05280
H1372       H  0.06882312  0.79270312  0.95796990     0.08510
H1373       H  0.10759705  0.81888389  0.95038649     0.08510
H1374       H  0.03986206  0.85506630  0.60502874     0.08490
H1375       H  0.07328940  0.88746827  0.59233703     0.08490
H1376       H  0.08239139  0.84739742  0.60919594     0.05270
C1377       C  0.20474196  0.72070922  0.51577859    -0.20540
C1378       C  0.18413089  0.74138603  0.53284269    -0.07100
C1379       C  0.19459520  0.75410584  0.56245045     0.13770
C1380       C  0.22515784  0.74609431  0.57384610    -0.20590
C1381       C  0.24561920  0.72530759  0.55700731    -0.07110
C1382       C  0.23542393  0.71264455  0.52737517     0.13750
C1383       C  0.25709550  0.69143441  0.50746038    -0.23940
H1384       H  0.19654749  0.71052197  0.49344741     0.15040
H1385       H  0.23310817  0.75589342  0.59646864     0.15070
C1386       C  0.17306654  0.77479909  0.58329515    -0.23890
H1387       H  0.24617669  0.68530187  0.48404349     0.05280
H1388       H  0.25980499  0.66777409  0.52206073     0.08510
H1389       H  0.28213537  0.70478207  0.50074654     0.08510
H1390       H  0.14798773  0.76147533  0.58985212     0.08490
H1391       H  0.17058022  0.79899398  0.56959805     0.08490
H1392       H  0.18402735  0.78010288  0.60691577     0.05270
C1393       C  0.60338649  0.27959717  0.51686909     0.02900
C1394       C  0.63780422  0.27667174  0.01757679    -0.13250
C1395       C  0.64982936  0.24528719  0.02247808     0.00400
C1396       C  0.62729637  0.21697369  0.02339619    -0.11780
C1397       C  0.59255363  0.21953670  0.52550625     0.02890
C1398       C  0.58097723  0.25108951  0.52140506    -0.11200
H1399       H  0.65484109  0.29881692  0.01640897     0.08480
H1400       H  0.63670810  0.19280109  0.02608215     0.06010
H1401       H  0.55442799  0.25386978  0.52411413     0.05860
C1402       C  0.81670934  0.18443989  0.09601758     0.02900
C1403       C  0.83658843  0.21257812  0.10306379    -0.13250
C1404       C  0.83006172  0.24424953  0.09038857     0.00400
C1405       C  0.80090372  0.24703111  0.07339504    -0.11780
C1406       C  0.77826388  0.21960344  0.07039907     0.02890
C1407       C  0.78659567  0.18798158  0.08133831    -0.11200
H1408       H  0.85811633  0.20902736  0.11662590     0.08480
H1409       H  0.79531909  0.27076065  0.06219540     0.06010
H1410       H  0.77064025  0.16617965  0.07730258     0.05860
C1411       C  0.66559292  0.45416847  0.20507079     0.02900
C1412       C  0.67095690  0.46283014  0.23750603    -0.13250
C1413       C  0.70361320  0.46956091  0.24692244     0.00400
C1414       C  0.73082548  0.46606371  0.22383625    -0.11780
C1415       C  0.72562539  0.45900443  0.19109213     0.02890
C1416       C  0.69319743  0.45350528  0.18178169    -0.11200
H1417       H  0.64975390  0.46483965  0.25523423     0.08480
H1418       H  0.75608905  0.46912651  0.23111004     0.06010
H1419       H  0.68949387  0.44875202  0.15621758     0.05860
C1420       C  0.75694896  0.02541511  0.42314177     0.02900
C1421       C  0.75253518  0.01484183  0.39126944    -0.13250
C1422       C  0.72039745  0.01156750  0.37976267     0.00400
C1423       C  0.69269341  0.01824317  0.40085602    -0.11780
C1424       C  0.69685253  0.02735445  0.43321745     0.02890
C1425       C  0.72902983  0.03296674  0.44320082    -0.11200
H1426       H  0.77361782  0.00745389  0.37615787     0.08480
H1427       H  0.66779305  0.01511673  0.39263523     0.06010
H1428       H  0.73215024  0.04041538  0.46806864     0.05860
C1429       C  0.49997370  0.11976113  0.27160730     0.02900
C1430       C  0.50947047  0.10185781  0.29988382    -0.13250
C1431       C  0.51711283  0.11760717  0.32850445     0.00400
C1432       C  0.51557655  0.15236562  0.32749308    -0.11780
C1433       C  0.50205733  0.16960354  0.30113056     0.02890
C1434       C  0.49558795  0.15354966  0.27256788    -0.11200
H1435       H  0.50895103  0.07527342  0.29977092     0.08480
H1436       H  0.52217169  0.16607787  0.34829940     0.06010
H1437       H  0.48563605  0.16684176  0.25184019     0.05860
C1438       C  0.93829830  0.33998243  0.35745556     0.02900
C1439       C  0.94793705  0.30807099  0.35238970    -0.13250
C1440       C  0.95341135  0.29809596  0.31986945     0.00400
C1441       C  0.94727298  0.31974215  0.29271313    -0.11780
C1442       C  0.93798425  0.35159715  0.29771044     0.02890
C1443       C  0.93320149  0.36144493  0.32993663    -0.11200
H1444       H  0.95231105  0.29151071  0.37356107     0.08480
H1445       H  0.95058565  0.31224473  0.26758067     0.06010
H1446       H  0.92720692  0.38654385  0.33348538     0.05860
O1447       O  0.52951165  0.41714326  0.01436195    -0.86720
O1448       O  0.92564038  0.45961429  0.16888753    -0.86890
O1449       O  0.52688790  0.43180318  0.12997986    -0.88550
O1450       O  0.93748197  0.37638992  0.09591166    -0.87310
O1451       O  0.89824726  0.39127017  0.06105837    -0.86900
O1452       O  0.54902153  0.48586279  0.12066704    -0.88270
O1453       O  0.95720014  0.41712581  0.15524589    -0.86750
O1454       O  0.51458856  0.39245768  0.06685598    -0.86340
Zr1455     Zr  0.97773945  0.42605165  0.09729754     2.84310
O1456       O  0.92425604  0.44481541  0.09803813    -1.08310
O1457       O  0.51589179  0.46312177  0.06300499    -1.09040
C1458       C  0.53100734  0.39404306  0.03798860     1.06390
C1459       C  0.93951007  0.43256752  0.17592046     1.06330
C1460       C  0.54798523  0.45639291  0.13505445     1.09310
C1461       C  0.91046281  0.37039213  0.08093785     1.07090
H1462       H  0.98531304  0.47788436  0.14000953     0.32650
O1463       O  0.97838442  0.47862802  0.11765451    -1.29260
H1464       H  0.96133817  0.40815850  0.03495082     0.32320
O1465       O  0.96157642  0.42991041  0.04306893    -1.30940
O1466       O  0.89505875  0.04778715  0.11266431    -0.86710
O1467       O  0.00501684  0.50754984  0.45926912    -0.88210
O1468       O  0.50794061  0.04385548  0.13450573    -0.86790
O1469       O  0.85596292  0.44759241  0.08092455    -0.86840
O1470       O  0.91633167  0.41888190  0.99326995    -0.86550
O1471       O  0.56709273  0.02062198  0.04592326    -0.86360
O1472       O  0.98193489  0.08880413  0.03434581    -0.86730
O1473       O  0.89556727  0.03311810  0.99883925    -0.86190
O1474       O  0.52290817  0.07388116  0.06686630    -0.87260
O1475       O  0.87524202  0.47858640  0.00666017    -0.86410
O1476       O  0.95314719  0.03300768  0.15465749    -0.86810
O1477       O  0.55620001  0.49080971  0.00120812    -0.86530
O1478       O  0.97065064  0.43168414  0.47205900    -0.86180
O1479       O  0.86787251  0.47560649  0.12651237    -0.86590
O1480       O  0.90899370  0.07037091  0.05945409    -0.86890
O1481       O  0.97097198  0.04753678  0.47308997    -0.88230
Zr1482     Zr  0.92521457  0.49744027  0.11828584     2.83100
Zr1483     Zr  0.99906684  0.46704131  0.00856881     2.83500
Zr1484     Zr  0.51569369  0.01556316  0.08342554     2.84090
Zr1485     Zr  0.90824882  0.44867318  0.04356670     2.83360
Zr1486     Zr  0.94595033  0.03738062  0.02954996     2.84220
O1487       O  0.94537264  0.48535159  0.00823763    -1.08800
O1488       O  0.96252953  0.03447172  0.08382784    -1.08300
C1489       C  0.89315971  0.07013451  0.08842751     1.06360
C1490       C  0.99266637  0.03565973  0.45330349     1.08980
C1491       C  0.98295276  0.04667252  0.15588706     1.06530
C1492       C  0.84795160  0.45888298  0.10949221     1.06890
C1493       C  0.94139815  0.41625319  0.47184205     1.06480
C1494       C  0.57505654  0.50984800  0.01727649     1.06030
C1495       C  0.50859545  0.09551423  0.04944727     1.06450
C1496       C  0.87390792  0.00867296  0.99493128     1.05970
H1497       H  0.51458522  0.03509023  0.01573992     0.32650
O1498       O  0.99926080  0.01919588  0.02938314    -1.29900
H1499       H  0.88609000  0.00791198  0.06405646     0.32670
O1500       O  0.90830457  0.50066444  0.06404756    -1.31280
C1501       C  0.96607950  0.41567189  0.22634620    -0.20540
C1502       C  0.93653320  0.41774758  0.21047839    -0.07100
C1503       C  0.90672314  0.40025559  0.22510751     0.13770
C1504       C  0.90737694  0.37958604  0.25444764    -0.20590
C1505       C  0.93735273  0.37605748  0.26907151    -0.07110
C1506       C  0.96680187  0.39511041  0.25563715     0.13750
C1507       C  0.99912200  0.39304731  0.27172824    -0.23940
H1508       H  0.98899842  0.42904774  0.21488985     0.15040
H1509       H  0.88482457  0.36510459  0.26523133     0.15070
C1510       C  0.87492438  0.40152974  0.20846342    -0.23890
H1511       H  0.51972868  0.40964437  0.25797433     0.05280
H1512       H  0.00651098  0.36733457  0.27225650     0.08510
H1513       H  0.99594826  0.40043070  0.29762677     0.08510
H1514       H  0.87864059  0.39179915  0.18364459     0.08490
H1515       H  0.86816144  0.42746112  0.20550945     0.08490
H1516       H  0.85393604  0.38624211  0.22313150     0.05270
C1517       C  0.90802091  0.36631859  0.40302857    -0.20540
C1518       C  0.93739137  0.35338804  0.39060198    -0.07100
C1519       C  0.96690648  0.35900797  0.40669885     0.13770
C1520       C  0.96655981  0.37823820  0.43402818    -0.20590
C1521       C  0.93777617  0.39288527  0.44543708    -0.07110
C1522       C  0.90774629  0.38596923  0.43029680     0.13750
C1523       C  0.87586625  0.40045022  0.44140175    -0.23940
H1524       H  0.88555063  0.36222338  0.39028523     0.15040
H1525       H  0.98946826  0.38271023  0.44598166     0.15070
C1526       C  0.99948264  0.34676476  0.39390963    -0.23890
H1527       H  0.85540752  0.39365575  0.42564497     0.05280
H1528       H  0.87995028  0.42789446  0.43975497     0.08510
H1529       H  0.86745274  0.39092557  0.46742929     0.08510
H1530       H  0.00586425  0.35616057  0.36745720     0.08490
H1531       H  0.99754878  0.31931911  0.39607740     0.08490
H1532       H  0.52042842  0.35532201  0.40832531     0.05270
C1533       C  0.96880538  0.05605948  0.21480737    -0.20540
C1534       C  0.98818673  0.06632213  0.18479625    -0.07100
C1535       C  0.50995897  0.09567891  0.18297811     0.13770
C1536       C  0.51241350  0.11321233  0.21152145    -0.20590
C1537       C  0.49338860  0.10244311  0.24156054    -0.07110
C1538       C  0.97049722  0.07404065  0.24286400     0.13750
C1539       C  0.94666587  0.06245137  0.27294286    -0.23940
H1540       H  0.95165034  0.03390470  0.21636428     0.15040
H1541       H  0.52973961  0.13516899  0.21060502     0.15070
C1542       C  0.52995553  0.10922174  0.15107275    -0.23890
H1543       H  0.92071515  0.06032212  0.26543732     0.05280
H1544       H  0.94717717  0.07972522  0.29287950     0.08510
H1545       H  0.45268768  0.03776141  0.28325445     0.08510
H1546       H  0.01299232  0.11309343  0.13103853     0.08490
H1547       H  0.54843980  0.09180023  0.14358391     0.08490
H1548       H  0.54398281  0.13338056  0.15388235     0.05270
C1549       C  0.50648495  0.11062133  0.39023365    -0.20540
C1550       C  0.51916164  0.09756177  0.36116427    -0.07100
C1551       C  0.52904592  0.06463134  0.36433897     0.13770
C1552       C  0.01979356  0.04440792  0.39421638    -0.20590
C1553       C  0.00434064  0.05728829  0.42227593    -0.07110
C1554       C  0.00109609  0.09188282  0.42067925     0.13750
C1555       C  0.99260776  0.11024457  0.45080138    -0.23940
H1556       H  0.49899872  0.13551048  0.38961547     0.15040
H1557       H  0.02532149  0.01871647  0.39570242     0.15070
C1558       C  0.55096942  0.05061649  0.33792678    -0.23890
H1559       H  0.99672966  0.13752983  0.44521430     0.05280
H1560       H  0.50903626  0.10361138  0.47062424     0.08510
H1561       H  0.96585883  0.10461837  0.45965329     0.08510
H1562       H  0.56104591  0.06958991  0.31771741     0.08490
H1563       H  0.53683547  0.02986054  0.32735164     0.08490
H1564       H  0.57289647  0.04106395  0.34922481     0.05270
C1565       C  0.50785531  0.23115522  0.29063774    -0.20540
C1566       C  0.98969136  0.20247156  0.30590863    -0.07100
C1567       C  0.95969878  0.20524420  0.32579545     0.13770
C1568       C  0.94845783  0.23665361  0.32971423    -0.20590
C1569       C  0.96643579  0.26548865  0.31431039    -0.07110
C1570       C  0.99684377  0.26269594  0.29484765     0.13750
C1571       C  0.01866699  0.29280653  0.27973038    -0.23940
H1572       H  0.53096964  0.22884044  0.27571584     0.15040
H1573       H  0.92537818  0.23874967  0.34478630     0.15070
C1574       C  0.93925487  0.17499613  0.34258926    -0.23890
H1575       H  0.54279570  0.28602488  0.26811475     0.05280
H1576       H  0.52427025  0.30967195  0.29934901     0.08510
H1577       H  0.00619834  0.30604163  0.25992262     0.08510
H1578       H  0.95397771  0.16196962  0.36069245     0.08490
H1579       H  0.93197675  0.15796221  0.32363874     0.08490
H1580       H  0.91609622  0.18152344  0.35639557     0.05270
C1581       C  0.64250305  0.04742908  0.45260923    -0.20540
C1582       C  0.66767556  0.02630288  0.45814374    -0.07100
C1583       C  0.66339716  0.00243249  0.48601482     0.13770
C1584       C  0.63371211  0.49962219  0.00684155    -0.20590
C1585       C  0.60823053  0.01981140  0.50050434    -0.07110
C1586       C  0.61270939  0.04439606  0.47352898     0.13750
C1587       C  0.58555690  0.06657490  0.46624513    -0.23940
H1588       H  0.64577104  0.06559637  0.43129940     0.15040
H1589       H  0.62960229  0.48038841  0.02720436     0.15070
C1590       C  0.68911264  0.47857914  0.49317351    -0.23890
H1591       H  0.59312937  0.08460110  0.44439286     0.05280
H1592       H  0.57953110  0.08062557  0.48816719     0.08510
H1593       H  0.56283746  0.05142080  0.46080438     0.08510
H1594       H  0.71130310  0.99222317  0.50170232     0.08490
H1595       H  0.69610131  0.46587056  0.47057220     0.08490
H1596       H  0.67974036  0.45924703  0.01338452     0.05420
C1597       C  0.78590419  0.00089530  0.46877783    -0.20540
C1598       C  0.78841757  0.02167608  0.43930734    -0.07100
C1599       C  0.81940442  0.03943996  0.42821830     0.13770
C1600       C  0.84717271  0.03550756  0.44696798    -0.20590
C1601       C  0.84425088  0.01463892  0.47666199    -0.07110
C1602       C  0.81270685  0.99802157  0.98817959     0.13750
C1603       C  0.80630092  0.47819301  0.02163516    -0.23940
H1604       H  0.76240307  0.98685042  0.47693538     0.15040
H1605       H  0.87120884  0.04843676  0.43828501     0.15070
C1606       C  0.82303821  0.06292616  0.39728683    -0.23890
H1607       H  0.77925823  0.47102024  0.02813574     0.05280
H1608       H  0.81532051  0.99321156  0.04152409     0.08510
H1609       H  0.81880572  0.45489879  0.02142260     0.08510
H1610       H  0.80501889  0.08202581  0.39976606     0.08490
H1611       H  0.81822928  0.04921836  0.37518500     0.08490
H1612       H  0.84859337  0.07572741  0.39297083     0.05270
C1613       C  0.59308900  0.42474316  0.15689035    -0.20540
C1614       C  0.57335914  0.45139534  0.15914469    -0.07100
C1615       C  0.58040448  0.47497040  0.18237607     0.13770
C1616       C  0.60944720  0.47369405  0.19922906    -0.20590
C1617       C  0.63139692  0.44920722  0.19386481    -0.07110
C1618       C  0.62184504  0.42311312  0.17417262     0.13750
C1619       C  0.64140091  0.39330767  0.17066452    -0.23940
H1620       H  0.58687490  0.40569953  0.14065586     0.15040
H1621       H  0.61608122  0.49321290  0.21500007     0.15070
C1622       C  0.55754375  0.50168602  0.18946361    -0.23890
H1623       H  0.62457108  0.37040582  0.17755564     0.05280
H1624       H  0.66207614  0.39271880  0.18716228     0.08510
H1625       H  0.65180019  0.39299331  0.14441209     0.08510
H1626       H  0.53162911  0.49039707  0.19610991     0.08490
H1627       H  0.55808037  0.51978665  0.16748509     0.08490
H1628       H  0.56520876  0.51569847  0.21059515     0.05270
C1629       C  0.77027168  0.42836893  0.16593300    -0.20540
C1630       C  0.75424484  0.45753891  0.16633435    -0.07100
C1631       C  0.76659222  0.48519547  0.14440294     0.13770
C1632       C  0.79557756  0.48329926  0.12321856    -0.20590
C1633       C  0.81306479  0.45476803  0.12424569    -0.07110
C1634       C  0.80011918  0.42692719  0.14602483     0.13750
C1635       C  0.81802702  0.39627146  0.15114875    -0.23940
H1636       H  0.76056385  0.40723531  0.18292363     0.15040
H1637       H  0.80598076  0.00502651  0.10741575     0.15070
C1638       C  0.75008520  0.01712049  0.14451984    -0.23890
H1639       H  0.81840652  0.38956573  0.17818188     0.05280
H1640       H  0.84422523  0.39972135  0.14022887     0.08510
H1641       H  0.80424360  0.37536319  0.14053102     0.08510
H1642       H  0.75011369  0.02650316  0.16964720     0.08490
H1643       H  0.72392399  0.01283536  0.13803268     0.08490
H1644       H  0.76329006  0.03652831  0.12623138     0.05270
C1645       C  0.69343612  0.46090833  0.30884818    -0.20540
C1646       C  0.70905482  0.48031215  0.28080296    -0.07100
C1647       C  0.72827291  0.51014598  0.28562784     0.13770
C1648       C  0.73158861  0.01937616  0.31816822    -0.20590
C1649       C  0.71581694  0.00008256  0.34610772    -0.07110
C1650       C  0.69657033  0.47031952  0.34137573     0.13750
C1651       C  0.68022203  0.94774358  0.37045819    -0.23940
H1652       H  0.67876653  0.43810196  0.30523829     0.15040
H1653       H  0.74622890  0.04217644  0.32188227     0.15070
C1654       C  0.74404955  0.53334224  0.25672508    -0.23890
H1655       H  0.66834249  0.42447010  0.36221358     0.05280
H1656       H  0.66037893  0.95998676  0.38407335     0.08510
H1657       H  0.69920342  0.44102977  0.38766263     0.08510
H1658       H  0.72493011  0.53953150  0.23948272     0.08490
H1659       H  0.76456263  0.52202338  0.24313200     0.08490
H1660       H  0.75504692  0.55689581  0.26518743     0.05270
C1661       C  0.87191840  0.12150118  0.06468788    -0.20540
C1662       C  0.87141915  0.09806023  0.09237666    -0.07100
C1663       C  0.85029304  0.10235051  0.12136226     0.13770
C1664       C  0.83152258  0.13024910  0.12188737    -0.20590
C1665       C  0.83293435  0.15338415  0.09410525    -0.07110
C1666       C  0.85316873  0.14868952  0.06508308     0.13750
C1667       C  0.85644198  0.17225921  0.03394881    -0.23940
H1668       H  0.88744774  0.11916355  0.04198357     0.15040
H1669       H  0.81609473  0.13432984  0.14415779     0.15070
C1670       C  0.84726323  0.07810020  0.15173956    -0.23890
H1671       H  0.84870464  0.15866954  0.01257907     0.05280
H1672       H  0.88291242  0.18233398  0.02851811     0.08510
H1673       H  0.84108920  0.19350906  0.03567269     0.08510
H1674       H  0.87189528  0.07703066  0.16207429     0.08490
H1675       H  0.83800924  0.05317061  0.14508361     0.08490
H1676       H  0.82938295  0.08536529  0.17167334     0.05270
C1677       C  0.83736847  0.30441947  0.09603270    -0.20540
C1678       C  0.85279075  0.27488731  0.09380962    -0.07100
C1679       C  0.88849252  0.27703838  0.08998473     0.13770
C1680       C  0.90674029  0.30838825  0.08887477    -0.20590
C1681       C  0.89062632  0.33766421  0.08682279    -0.07110
C1682       C  0.85517286  0.33513020  0.08799437     0.13750
C1683       C  0.83532050  0.36331883  0.07688604    -0.23940
H1684       H  0.81043877  0.30355098  0.10027219     0.15040
H1685       H  0.93380679  0.31013435  0.08677671     0.15070
C1686       C  0.90804354  0.24752078  0.08469294    -0.23890
H1687       H  0.80793308  0.35704677  0.08156688     0.05280
H1688       H  0.84071760  0.36935781  0.04963046     0.08510
H1689       H  0.84183451  0.38552776  0.08966331     0.08510
H1690       H  0.89746736  0.23281312  0.06532720     0.08490
H1691       H  0.90835671  0.23214120  0.10846299     0.08490
H1692       H  0.93456398  0.25519469  0.07599415     0.05270
C1693       C  0.53769449  0.18628503  0.52095433    -0.20540
C1694       C  0.56857828  0.18963594  0.03510495    -0.07100
C1695       C  0.57556338  0.16442042  0.05899879     0.13770
C1696       C  0.55586543  0.13434955  0.06226821    -0.20590
C1697       C  0.52612263  0.12975268  0.04631796    -0.07110
C1698       C  0.51529902  0.15765821  0.02837047     0.13750
C1699       C  0.97973523  0.15895390  0.51967521    -0.23940
H1700       H  0.53063985  0.20630271  0.50448569     0.15040
H1701       H  0.56362862  0.11467283  0.07872500     0.15070
C1702       C  0.60204504  0.16864670  0.08319653    -0.23890
H1703       H  0.97547626  0.18352434  0.50758600     0.05280
H1704       H  0.96264169  0.15445749  0.54279837     0.08510
H1705       H  0.97290831  0.14027038  0.50252772     0.08510
H1706       H  0.61234927  0.19467797  0.08371950     0.08490
H1707       H  0.62251099  0.15280020  0.07720893     0.08490
H1708       H  0.59088085  0.16096597  0.10890947     0.05270
C1709       C  0.55825139  0.35675212  0.49939983    -0.20540
C1710       C  0.55291049  0.36686418  0.03185647    -0.07100
C1711       C  0.56802079  0.35011615  0.05816187     0.13770
C1712       C  0.58629824  0.32315181  0.05167150    -0.20590
C1713       C  0.58973599  0.31197045  0.01985190    -0.07110
C1714       C  0.57626096  0.32924383  0.49320029     0.13750
C1715       C  0.58057308  0.31830779  0.45846327    -0.23940
H1716       H  0.54724744  0.36955019  0.47904772     0.15040
H1717       H  0.59683397  0.30966911  0.07194475     0.15070
C1718       C  0.56568745  0.36058288  0.09319075    -0.23890
H1719       H  0.56888652  0.33469766  0.44036686     0.05280
H1720       H  0.56882328  0.29270318  0.45796983     0.08510
H1721       H  0.60759721  0.31888396  0.45038649     0.08510
H1722       H  0.53986217  0.35506629  0.10502869     0.08490
H1723       H  0.57328951  0.38746824  0.09233693     0.08490
H1724       H  0.58239151  0.34739740  0.10919586     0.05270
C1725       C  0.70474197  0.22070914  0.01577860    -0.20540
C1726       C  0.68413089  0.24138594  0.03284268    -0.07100
C1727       C  0.69459518  0.25410577  0.06245045     0.13770
C1728       C  0.72515782  0.24609425  0.07384611    -0.20590
C1729       C  0.74561919  0.22530754  0.05700733    -0.07110
C1730       C  0.73542394  0.21264449  0.02737519     0.13750
C1731       C  0.75709553  0.19143435  0.00746042    -0.23940
H1732       H  0.69654752  0.21052188  0.99344742     0.15040
H1733       H  0.73310813  0.25589337  0.09646865     0.15070
C1734       C  0.67306650  0.27479902  0.08329513    -0.23890
H1735       H  0.74617674  0.18530180  0.98404353     0.05280
H1736       H  0.75980503  0.16777404  0.02206078     0.08510
H1737       H  0.78213541  0.20478203  0.00074659     0.08510
H1738       H  0.64798769  0.26147524  0.08985209     0.08490
H1739       H  0.67058018  0.29899390  0.06959802     0.08490
H1740       H  0.68402729  0.28010281  0.10691575     0.05270
C1741       C  0.60338641  0.27959717  0.01686910     0.02900
C1742       C  0.63780429  0.27667173  0.51757684    -0.13250
C1743       C  0.64982942  0.24528718  0.52247814     0.00400
C1744       C  0.62729643  0.21697368  0.52339620    -0.11780
C1745       C  0.59255357  0.21953669  0.02550630     0.02890
C1746       C  0.58097716  0.25108950  0.02140511    -0.11200
H1747       H  0.65484116  0.29881691  0.51640907     0.08480
H1748       H  0.63670816  0.19280108  0.52608218     0.06010
H1749       H  0.55442791  0.25386978  0.02411423     0.05860
C1750       C  0.81670929  0.18443994  0.59601798     0.02900
C1751       C  0.83658827  0.21257820  0.60306435    -0.13250
C1752       C  0.83006159  0.24424960  0.59038909     0.00400
C1753       C  0.80090364  0.24703114  0.57339544    -0.11780
C1754       C  0.77826386  0.21960345  0.57039939     0.02890
C1755       C  0.78659568  0.18798160  0.58133861    -0.11200
H1756       H  0.85811609  0.20902743  0.61662657     0.08480
H1757       H  0.79531902  0.27076064  0.56219572     0.06010
H1758       H  0.77064033  0.16617965  0.57730279     0.05860
C1759       C  0.66559303  0.45416783  0.70507087     0.02900
C1760       C  0.67095699  0.46282950  0.73750611    -0.13250
C1761       C  0.70361328  0.46956014  0.74692259     0.00400
C1762       C  0.73082558  0.46606279  0.72383648    -0.11780
C1763       C  0.72562552  0.45900350  0.69109236     0.02890
C1764       C  0.69319758  0.45350446  0.68178185    -0.11200
H1765       H  0.64975398  0.46483916  0.75523425     0.08480
H1766       H  0.75608914  0.46912557  0.73111031     0.06010
H1767       H  0.68949404  0.44875125  0.65621772     0.05860
C1768       C  0.75694903  0.02541514  0.92314177     0.02900
C1769       C  0.75253523  0.01484187  0.89126944    -0.13250
C1770       C  0.72039750  0.01156756  0.87976268     0.00400
C1771       C  0.69269347  0.01824322  0.90085605    -0.11780
C1772       C  0.69685260  0.02735449  0.93321748     0.02890
C1773       C  0.72902991  0.03296677  0.94320084    -0.11200
H1774       H  0.77361786  0.00745392  0.87615786     0.08480
H1775       H  0.66779311  0.01511679  0.89263527     0.06010
H1776       H  0.73215033  0.04041540  0.96806866     0.05860
C1777       C  0.49997364  0.11976119  0.77160731     0.02900
C1778       C  0.50947042  0.10185787  0.79988383    -0.13250
C1779       C  0.51711274  0.11760723  0.82850447     0.00400
C1780       C  0.51557640  0.15236568  0.82749313    -0.11780
C1781       C  0.50205717  0.16960359  0.80113060     0.02890
C1782       C  0.49558784  0.15354970  0.77256790    -0.11200
H1783       H  0.50895102  0.07527348  0.79977092     0.08480
H1784       H  0.52217150  0.16607792  0.84829945     0.06010
H1785       H  0.48563593  0.16684180  0.75184021     0.05860
C1786       C  0.93829794  0.33998241  0.85745555     0.02900
C1787       C  0.94793670  0.30807097  0.85238969    -0.13250
C1788       C  0.95341100  0.29809595  0.81986944     0.00400
C1789       C  0.94727262  0.31974213  0.79271312    -0.11780
C1790       C  0.93798388  0.35159713  0.79771042     0.02890
C1791       C  0.93320110  0.36144491  0.82993662    -0.11200
H1792       H  0.95231072  0.29151071  0.87356106     0.08480
H1793       H  0.95058531  0.31224472  0.76758066     0.06010
H1794       H  0.92720655  0.38654383  0.83348537     0.05860
O1795       O  0.52951175  0.41714327  0.51436199    -0.86720
O1796       O  0.92564040  0.45961438  0.66888753    -0.86890
O1797       O  0.52688800  0.43180321  0.62997986    -0.88550
O1798       O  0.93748195  0.37638999  0.59591178    -0.87310
O1799       O  0.89824731  0.39127022  0.56105843    -0.86900
O1800       O  0.54902164  0.48586280  0.62066704    -0.88270
O1801       O  0.95720020  0.41712591  0.65524593    -0.86750
O1802       O  0.51458859  0.39245767  0.56685601    -0.86340
Zr1803     Zr  0.97773953  0.42605169  0.59729757     2.84310
O1804       O  0.92425614  0.44481547  0.59803811    -1.08310
O1805       O  0.51589187  0.46312181  0.56300502    -1.09040
C1806       C  0.53100740  0.39404306  0.53798863     1.06390
C1807       C  0.93951010  0.43256762  0.67592048     1.06330
C1808       C  0.54798535  0.45639292  0.63505443     1.09310
C1809       C  0.91046280  0.37039221  0.58093797     1.07090
H1810       H  0.98531311  0.47788440  0.64000956     0.32650
O1811       O  0.97838449  0.47862806  0.61765453    -1.29260
H1812       H  0.96133828  0.40815852  0.53495085     0.32320
O1813       O  0.96157654  0.42991043  0.54306894    -1.30940
O1814       O  0.89505880  0.04778724  0.61266440    -0.86710
O1815       O  0.00501673  0.50754980  0.95926911    -0.88210
O1816       O  0.50794057  0.04385555  0.63450572    -0.86790
O1817       O  0.85596307  0.44759229  0.58092457    -0.86840
O1818       O  0.91633183  0.41888189  0.49326995    -0.86550
O1819       O  0.56709267  0.02062202  0.54592325    -0.86360
O1820       O  0.98193484  0.08880418  0.53434581    -0.86730
O1821       O  0.89556719  0.03311815  0.49883928    -0.86190
O1822       O  0.52290812  0.07388121  0.56686628    -0.87260
O1823       O  0.87524212  0.47858641  0.50666017    -0.86410
O1824       O  0.95314716  0.03300770  0.65465752    -0.86810
O1825       O  0.55620013  0.49080974  0.50120817    -0.86530
O1826       O  0.97065048  0.43168412  0.97205899    -0.86180
O1827       O  0.86787263  0.47560637  0.62651240    -0.86590
O1828       O  0.90899364  0.07037098  0.55945415    -0.86890
O1829       O  0.97097204  0.04753674  0.97308995    -0.88230
Zr1830     Zr  0.92521464  0.49744031  0.61828582     2.83100
Zr1831     Zr  0.99906696  0.46704135  0.50856883     2.83500
Zr1832     Zr  0.51569364  0.01556322  0.58342554     2.84090
Zr1833     Zr  0.90824894  0.44867320  0.54356668     2.83360
Zr1834     Zr  0.94595026  0.03738068  0.52954998     2.84220
O1835       O  0.94537276  0.48535162  0.50823762    -1.08800
O1836       O  0.96252947  0.03447176  0.58382786    -1.08300
C1837       C  0.89315973  0.07013461  0.58842762     1.06360
C1838       C  0.99266645  0.03565970  0.95330348     1.08980
C1839       C  0.98295272  0.04667256  0.65588707     1.06530
C1840       C  0.84795175  0.45888280  0.60949226     1.06890
C1841       C  0.94139798  0.41625319  0.97184203     1.06480
C1842       C  0.57505664  0.50984805  0.51727654     1.06030
C1843       C  0.50859541  0.09551428  0.54944725     1.06450
C1844       C  0.87390785  0.00867300  0.49493130     1.05970
H1845       H  0.51458515  0.03509028  0.51573992     0.32650
O1846       O  0.99926072  0.01919593  0.52938315    -1.29900
H1847       H  0.88608994  0.00791204  0.56405650     0.32670
O1848       O  0.90830464  0.50066446  0.56404754    -1.31280
C1849       C  0.96607951  0.41567167  0.72634613    -0.20540
C1850       C  0.93653319  0.41774768  0.71047841    -0.07100
C1851       C  0.90672299  0.40025605  0.72510765     0.13770
C1852       C  0.90737668  0.37958643  0.75444775    -0.20590
C1853       C  0.93735248  0.37605750  0.76907151    -0.07110
C1854       C  0.96680175  0.39511017  0.75563708     0.13750
C1855       C  0.99912188  0.39304681  0.77172813    -0.23940
H1856       H  0.98899851  0.42904731  0.71488973     0.15040
H1857       H  0.88482420  0.36510522  0.76523151     0.15070
C1858       C  0.87492417  0.40153068  0.70846371    -0.23890
H1859       H  0.51972865  0.40964380  0.75797420     0.05280
H1860       H  0.00651066  0.36733401  0.77225639     0.08510
H1861       H  0.99594825  0.40043023  0.79762666     0.08510
H1862       H  0.87864016  0.39180016  0.68364482     0.08490
H1863       H  0.86816155  0.42746217  0.70550986     0.08490
H1864       H  0.85393572  0.38624324  0.72313182     0.05270
C1865       C  0.90802062  0.36631860  0.90302859    -0.20540
C1866       C  0.93739106  0.35338804  0.89060195    -0.07100
C1867       C  0.96690621  0.35900799  0.90669877     0.13770
C1868       C  0.96655958  0.37823822  0.93402810    -0.20590
C1869       C  0.93777596  0.39288529  0.94543705    -0.07110
C1870       C  0.90774605  0.38596925  0.93029681     0.13750
C1871       C  0.87586602  0.40045024  0.94140181    -0.23940
H1872       H  0.88555032  0.36222339  0.89028529     0.15040
H1873       H  0.98946806  0.38271026  0.94598154     0.15070
C1874       C  0.99948235  0.34676479  0.89390950    -0.23890
H1875       H  0.85540728  0.39365577  0.92564506     0.05280
H1876       H  0.87995006  0.42789448  0.93975503     0.08510
H1877       H  0.86745255  0.39092559  0.96742935     0.08510
H1878       H  0.00586392  0.35616059  0.86745706     0.08490
H1879       H  0.99754851  0.31931914  0.89607727     0.08490
H1880       H  0.52042818  0.35532207  0.90832513     0.05270
C1881       C  0.96880535  0.05605951  0.71480739    -0.20540
C1882       C  0.98818669  0.06632217  0.68479627    -0.07100
C1883       C  0.50995893  0.09567897  0.68297812     0.13770
C1884       C  0.51241346  0.11321238  0.71152146    -0.20590
C1885       C  0.49338855  0.10244316  0.74156055    -0.07110
C1886       C  0.97049717  0.07404068  0.74286402     0.13750
C1887       C  0.94666582  0.06245138  0.77294288    -0.23940
H1888       H  0.95165031  0.03390472  0.71636430     0.15040
H1889       H  0.52973956  0.13516906  0.71060503     0.15070
C1890       C  0.52995549  0.10922179  0.65107276    -0.23890
H1891       H  0.92071510  0.06032212  0.76543734     0.05280
H1892       H  0.94717711  0.07972524  0.79287952     0.08510
H1893       H  0.45268765  0.03776145  0.78325446     0.08510
H1894       H  0.01299227  0.11309348  0.63103856     0.08490
H1895       H  0.54843976  0.09180029  0.64358393     0.08490
H1896       H  0.54398277  0.13338062  0.65388237     0.05270
C1897       C  0.50648484  0.11062134  0.89023366    -0.20540
C1898       C  0.51916157  0.09756182  0.86116428    -0.07100
C1899       C  0.52904594  0.06463142  0.86433896     0.13770
C1900       C  0.01979362  0.04440795  0.89421636    -0.20590
C1901       C  0.00434070  0.05728829  0.92227593    -0.07110
C1902       C  0.00109612  0.09188282  0.92067927     0.13750
C1903       C  0.99260780  0.11024454  0.95080143    -0.23940
H1904       H  0.49899854  0.13551046  0.88961549     0.15040
H1905       H  0.02532158  0.01871651  0.89570238     0.15070
C1906       C  0.55096948  0.05061663  0.83792677    -0.23890
H1907       H  0.99672969  0.13752980  0.94521437     0.05280
H1908       H  0.50903618  0.10361139  0.97062425     0.08510
H1909       H  0.96585888  0.10461833  0.95965335     0.08510
H1910       H  0.56104593  0.06959008  0.81771740     0.08490
H1911       H  0.53683558  0.02986066  0.82735161     0.08490
H1912       H  0.57289656  0.04106414  0.84922478     0.05270
C1913       C  0.50785508  0.23115526  0.79063775    -0.20540
C1914       C  0.98969114  0.20247157  0.80590868    -0.07100
C1915       C  0.95969856  0.20524419  0.82579551     0.13770
C1916       C  0.94845756  0.23665359  0.82971426    -0.20590
C1917       C  0.96643548  0.26548864  0.81431039    -0.07110
C1918       C  0.99684346  0.26269595  0.79484765     0.13750
C1919       C  0.01866665  0.29280655  0.77973034    -0.23940
H1920       H  0.53096941  0.22884050  0.77571585     0.15040
H1921       H  0.92537791  0.23874963  0.84478634     0.15070
C1922       C  0.93925469  0.17499611  0.84258935    -0.23890
H1923       H  0.54279542  0.28602493  0.76811473     0.05280
H1924       H  0.52426992  0.30967202  0.79934895     0.08510
H1925       H  0.00619798  0.30604158  0.75992255     0.08510
H1926       H  0.95397757  0.16196964  0.86069255     0.08490
H1927       H  0.93197658  0.15796216  0.82363885     0.08490
H1928       H  0.91609604  0.18152341  0.85639567     0.05270
C1929       C  0.64250312  0.04742909  0.95260927    -0.20540
C1930       C  0.66767564  0.02630291  0.95814378    -0.07100
C1931       C  0.66339725  0.00243253  0.98601486     0.13770
C1932       C  0.63371221  0.49962225  0.50684159    -0.20590
C1933       C  0.60823060  0.01981139  0.00050436    -0.07110
C1934       C  0.61270945  0.04439604  0.97352901     0.13750
C1935       C  0.58555694  0.06657487  0.96624515    -0.23940
H1936       H  0.64577110  0.06559638  0.93129943     0.15040
H1937       H  0.62960239  0.48038844  0.52720437     0.15070
C1938       C  0.68911254  0.47857908  0.99317351    -0.23890
H1939       H  0.59312941  0.08460107  0.94439287     0.05280
H1940       H  0.57953111  0.08062552  0.98816721     0.08510
H1941       H  0.56283751  0.05142075  0.96080438     0.08510
H1942       H  0.71130320  0.99222324  0.00170237     0.08490
H1943       H  0.69610122  0.46587047  0.97057222     0.08490
H1944       H  0.67974045  0.45924707  0.51338450     0.05420
C1945       C  0.78590426  0.00089528  0.96877782    -0.20540
C1946       C  0.78841764  0.02167608  0.93930733    -0.07100
C1947       C  0.81940449  0.03943995  0.92821830     0.13770
C1948       C  0.84717278  0.03550754  0.94696796    -0.20590
C1949       C  0.84425095  0.01463889  0.97666197    -0.07110
C1950       C  0.81270678  0.99802160  0.48817961     0.13750
C1951       C  0.80630102  0.47819296  0.52163511    -0.23940
H1952       H  0.76240314  0.98685042  0.97693537     0.15040
H1953       H  0.87120892  0.04843673  0.93828500     0.15070
C1954       C  0.82303829  0.06292616  0.89728683    -0.23890
H1955       H  0.77925832  0.47102017  0.52813567     0.05280
H1956       H  0.81532043  0.99321161  0.54152411     0.08510
H1957       H  0.81880582  0.45489875  0.52142251     0.08510
H1958       H  0.80501898  0.08202581  0.89976607     0.08490
H1959       H  0.81822935  0.04921837  0.87518500     0.08490
H1960       H  0.84859345  0.07572740  0.89297083     0.05270
C1961       C  0.59308897  0.42474297  0.65689037    -0.20540
C1962       C  0.57335930  0.45139531  0.65914462    -0.07100
C1963       C  0.58040483  0.47497040  0.68237592     0.13770
C1964       C  0.60944753  0.47369388  0.69922893    -0.20590
C1965       C  0.63139704  0.44920684  0.69386479    -0.07110
C1966       C  0.62184499  0.42311276  0.67417265     0.13750
C1967       C  0.64140065  0.39330715  0.67066462    -0.23940
H1968       H  0.58687472  0.40569932  0.64065596     0.15040
H1969       H  0.61608168  0.49321272  0.71499990     0.15070
C1970       C  0.55754432  0.50168621  0.68946339    -0.23890
H1971       H  0.62457067  0.37040541  0.67755578     0.05280
H1972       H  0.66207587  0.39271817  0.68716239     0.08510
H1973       H  0.65179991  0.39299268  0.64441220     0.08510
H1974       H  0.53162962  0.49039745  0.69610972     0.08490
H1975       H  0.55808105  0.51978681  0.66748482     0.08490
H1976       H  0.56520944  0.51569867  0.71059489     0.05270
C1977       C  0.77027188  0.42836821  0.66593294    -0.20540
C1978       C  0.75424500  0.45753816  0.66633456    -0.07100
C1979       C  0.76659236  0.48519491  0.64440338     0.13770
C1980       C  0.79557770  0.48329890  0.62321895    -0.20590
C1981       C  0.81306496  0.45476769  0.62424580    -0.07110
C1982       C  0.80011938  0.42692666  0.64602469     0.13750
C1983       C  0.81802722  0.39627087  0.65114822    -0.23940
H1984       H  0.76056407  0.40723445  0.68292339     0.15040
H1985       H  0.80598071  0.00502663  0.60741569     0.15070
C1986       C  0.75008516  0.01712066  0.64451976    -0.23890
H1987       H  0.81840686  0.38956487  0.67818129     0.05280
H1988       H  0.84422538  0.39972079  0.64022820     0.08510
H1989       H  0.80424371  0.37536274  0.64053035     0.08510
H1990       H  0.75011365  0.02650335  0.66964712     0.08490
H1991       H  0.72392394  0.01283553  0.63803260     0.08490
H1992       H  0.76329002  0.03652847  0.62623129     0.05270
C1993       C  0.69343608  0.46090780  0.80884834    -0.20540
C1994       C  0.70905486  0.48031149  0.78080308    -0.07100
C1995       C  0.72827299  0.51014533  0.78562787     0.13770
C1996       C  0.73158862  0.01937627  0.81816824    -0.20590
C1997       C  0.71581697  0.00008265  0.84610773    -0.07110
C1998       C  0.69657025  0.47031911  0.84137585     0.13750
C1999       C  0.68022208  0.94774365  0.87045818    -0.23940
H2000       H  0.67876646  0.43810143  0.80523851     0.15040
H2001       H  0.74622891  0.04217655  0.82188229     0.15070
C2002       C  0.74404973  0.53334146  0.75672506    -0.23890
H2003       H  0.66834233  0.42446977  0.86221382     0.05280
H2004       H  0.66037899  0.95998682  0.88407337     0.08510
H2005       H  0.69920321  0.44102953  0.88766288     0.08510
H2006       H  0.72493034  0.53953069  0.73948263     0.08490
H2007       H  0.76456280  0.52202250  0.74313208     0.08490
H2008       H  0.75504712  0.55689505  0.76518734     0.05270
C2009       C  0.87191886  0.12150163  0.56468828    -0.20540
C2010       C  0.87141926  0.09806038  0.59237686    -0.07100
C2011       C  0.85029285  0.10235039  0.62136233     0.13770
C2012       C  0.83152238  0.13024897  0.62188751    -0.20590
C2013       C  0.83293443  0.15338428  0.59410558    -0.07110
C2014       C  0.85316914  0.14868993  0.56508353     0.13750
C2015       C  0.85644263  0.17225986  0.53394942    -0.23940
H2016       H  0.88744849  0.11916424  0.54198409     0.15040
H2017       H  0.81609428  0.13432949  0.64415784     0.15070
C2018       C  0.84726270  0.07809978  0.65173942    -0.23890
H2019       H  0.84870557  0.15867035  0.51257948     0.05280
H2020       H  0.88291307  0.18233473  0.52851904     0.08510
H2021       H  0.84108974  0.19350963  0.53567331     0.08510
H2022       H  0.87189460  0.07703013  0.66207445     0.08490
H2023       H  0.83800884  0.05317029  0.64508312     0.08490
H2024       H  0.82938219  0.08536466  0.67167311     0.05270
C2025       C  0.83736835  0.30441964  0.59603280    -0.20540
C2026       C  0.85279060  0.27488742  0.59381015    -0.07100
C2027       C  0.88849239  0.27703846  0.58998561     0.13770
C2028       C  0.90674016  0.30838834  0.58887550    -0.20590
C2029       C  0.89062623  0.33766432  0.58682298    -0.07110
C2030       C  0.85517279  0.33513030  0.58799420     0.13750
C2031       C  0.83532052  0.36331879  0.57688521    -0.23940
H2032       H  0.81043864  0.30355122  0.60027212     0.15040
H2033       H  0.93380665  0.31013442  0.58677774     0.15070
C2034       C  0.90804348  0.24752080  0.58469440    -0.23890
H2035       H  0.80793308  0.35704667  0.58156565     0.05280
H2036       H  0.84071804  0.36935751  0.54962964     0.08510
H2037       H  0.84183416  0.38552788  0.58966236     0.08510
H2038       H  0.89746756  0.23281292  0.56532869     0.08490
H2039       H  0.90835640  0.23214147  0.60846464     0.08490
H2040       H  0.93456399  0.25519464  0.57599584     0.05270
C2041       C  0.53769443  0.18628501  0.02095441    -0.20540
C2042       C  0.56857833  0.18963595  0.53510489    -0.07100
C2043       C  0.57556339  0.16442043  0.55899876     0.13770
C2044       C  0.55586541  0.13434959  0.56226819    -0.20590
C2045       C  0.52612262  0.12975273  0.54631792    -0.07110
C2046       C  0.51529905  0.15765826  0.52837040     0.13750
C2047       C  0.97973520  0.15895384  0.01967529    -0.23940
H2048       H  0.53063976  0.20630269  0.00448579     0.15040
H2049       H  0.56362857  0.11467287  0.57872500     0.15070
C2050       C  0.60204503  0.16864671  0.58319653    -0.23890
H2051       H  0.97547620  0.18352428  0.00758611     0.05280
H2052       H  0.96264167  0.15445738  0.04279845     0.08510
H2053       H  0.97290830  0.14027033  0.00252777     0.08510
H2054       H  0.61234926  0.19467798  0.58371949     0.08490
H2055       H  0.62251097  0.15280020  0.57720895     0.08490
H2056       H  0.59088081  0.16096600  0.60890946     0.05270
C2057       C  0.55825127  0.35675207  0.99939981    -0.20540
C2058       C  0.55291053  0.36686416  0.53185651    -0.07100
C2059       C  0.56802074  0.35011605  0.55816193     0.13770
C2060       C  0.58629822  0.32315173  0.55167155    -0.20590
C2061       C  0.58973606  0.31197044  0.51985192    -0.07110
C2062       C  0.57626082  0.32924378  0.99320029     0.13750
C2063       C  0.58057286  0.31830766  0.95846328    -0.23940
H2064       H  0.54724725  0.36955010  0.97904771     0.15040
H2065       H  0.59683389  0.30966898  0.57194481     0.15070
C2066       C  0.56568730  0.36058269  0.59319083    -0.23890
H2067       H  0.56888624  0.33469750  0.94036688     0.05280
H2068       H  0.56882305  0.29270304  0.95796992     0.08510
H2069       H  0.60759697  0.31888383  0.95038644     0.08510
H2070       H  0.53986199  0.35506608  0.60502869     0.08490
H2071       H  0.57328936  0.38746805  0.59233709     0.08490
H2072       H  0.58239131  0.34739717  0.60919597     0.05270
C2073       C  0.70474206  0.22070915  0.51577876    -0.20540
C2074       C  0.68413093  0.24138592  0.53284281    -0.07100
C2075       C  0.69459514  0.25410572  0.56245062     0.13770
C2076       C  0.72515776  0.24609421  0.57384634    -0.20590
C2077       C  0.74561919  0.22530752  0.55700759    -0.07110
C2078       C  0.73542402  0.21264450  0.52737541     0.13750
C2079       C  0.75709566  0.19143441  0.50746065    -0.23940
H2080       H  0.69654767  0.21052190  0.49344755     0.15040
H2081       H  0.73310802  0.25589331  0.59646891     0.15070
C2082       C  0.67306641  0.27479894  0.58329528    -0.23890
H2083       H  0.74617693  0.18530188  0.48404373     0.05280
H2084       H  0.75980514  0.16777408  0.52206100     0.08510
H2085       H  0.78213554  0.20478209  0.50074689     0.08510
H2086       H  0.64798760  0.26147515  0.58985218     0.08490
H2087       H  0.67058010  0.29899383  0.56959819     0.08490
H2088       H  0.68402715  0.28010272  0.60691594     0.05270
C2089       C  0.60338639  0.77959725  0.51686916     0.02900
C2090       C  0.63780421  0.77667174  0.01757680    -0.13250
C2091       C  0.64982936  0.74528720  0.02247808     0.00400
C2092       C  0.62729637  0.71697370  0.02339618    -0.11780
C2093       C  0.59255357  0.71953678  0.52550633     0.02890
C2094       C  0.58097714  0.75108958  0.52140517    -0.11200
H2095       H  0.65484108  0.79881693  0.01640899     0.08480
H2096       H  0.63670810  0.69280110  0.02608213     0.06010
H2097       H  0.55442790  0.75386984  0.52411428     0.05860
C2098       C  0.81670935  0.68443989  0.09601755     0.02900
C2099       C  0.83658844  0.71257812  0.10306377    -0.13250
C2100       C  0.83006173  0.74424953  0.09038856     0.00400
C2101       C  0.80090372  0.74703112  0.07339504    -0.11780
C2102       C  0.77826388  0.71960345  0.07039906     0.02890
C2103       C  0.78659568  0.68798158  0.08133828    -0.11200
H2104       H  0.85811634  0.70902735  0.11662588     0.08480
H2105       H  0.79531909  0.77076065  0.06219541     0.06010
H2106       H  0.77064026  0.66617965  0.07730254     0.05860
C2107       C  0.66559291  0.95416844  0.20507081     0.02900
C2108       C  0.67095689  0.96283010  0.23750605    -0.13250
C2109       C  0.70361318  0.96956087  0.24692246     0.00400
C2110       C  0.73082547  0.96606368  0.22383628    -0.11780
C2111       C  0.72562538  0.95900441  0.19109215     0.02890
C2112       C  0.69319743  0.95350525  0.18178171    -0.11200
H2113       H  0.64975389  0.96483960  0.25523424     0.08480
H2114       H  0.75608904  0.96912649  0.23111007     0.06010
H2115       H  0.68949387  0.94875200  0.15621760     0.05860
C2116       C  0.75694911  0.52541510  0.42314173     0.02900
C2117       C  0.75253531  0.51484181  0.39126940    -0.13250
C2118       C  0.72039758  0.51156751  0.37976264     0.00400
C2119       C  0.69269355  0.51824319  0.40085601    -0.11780
C2120       C  0.69685268  0.52735447  0.43321743     0.02890
C2121       C  0.72903000  0.53296674  0.44320079    -0.11200
H2122       H  0.77361794  0.50745386  0.37615782     0.08480
H2123       H  0.66779319  0.51511677  0.39263523     0.06010
H2124       H  0.73215042  0.54041537  0.46806861     0.05860
C2125       C  0.49997373  0.61976117  0.27160724     0.02900
C2126       C  0.50947051  0.60185784  0.29988376    -0.13250
C2127       C  0.51711285  0.61760719  0.32850440     0.00400
C2128       C  0.51557655  0.65236564  0.32749305    -0.11780
C2129       C  0.50205733  0.66960357  0.30113053     0.02890
C2130       C  0.49558797  0.65354969  0.27256784    -0.11200
H2131       H  0.50895108  0.57527345  0.29977086     0.08480
H2132       H  0.52217167  0.66607788  0.34829938     0.06010
H2133       H  0.48563606  0.66684180  0.25184015     0.05860
C2134       C  0.93829821  0.83998242  0.35745563     0.02900
C2135       C  0.94793698  0.80807098  0.35238977    -0.13250
C2136       C  0.95341130  0.79809596  0.31986952     0.00400
C2137       C  0.94727295  0.81974215  0.29271320    -0.11780
C2138       C  0.93798422  0.85159715  0.29771050     0.02890
C2139       C  0.93320142  0.86144493  0.32993669    -0.11200
H2140       H  0.95231095  0.79151070  0.37356114     0.08480
H2141       H  0.95058563  0.81224473  0.26758074     0.06010
H2142       H  0.92720685  0.88654384  0.33348544     0.05860
O2143       O  0.52951166  0.91714327  0.01436199    -0.86720
O2144       O  0.92564036  0.95961427  0.16888757    -0.86890
O2145       O  0.52688789  0.93180318  0.12997990    -0.88550
O2146       O  0.93748197  0.87638992  0.09591168    -0.87310
O2147       O  0.89824727  0.89127017  0.06105838    -0.86900
O2148       O  0.54902151  0.98586278  0.12066709    -0.88270
O2149       O  0.95720014  0.91712579  0.15524592    -0.86750
O2150       O  0.51458854  0.89245768  0.06685602    -0.86340
Zr2151     Zr  0.97773944  0.92605165  0.09729757     2.84310
O2152       O  0.92425603  0.94481541  0.09803816    -1.08310
O2153       O  0.51589178  0.96312178  0.06300504    -1.09040
C2154       C  0.53100734  0.89404307  0.03798863     1.06390
C2155       C  0.93951005  0.93256749  0.17592050     1.06330
C2156       C  0.54798522  0.95639290  0.13505449     1.09310
C2157       C  0.91046282  0.87039213  0.08093787     1.07090
H2158       H  0.98531302  0.97788435  0.14000958     0.32650
O2159       O  0.97838440  0.97862801  0.11765456    -1.29260
H2160       H  0.96133819  0.90815852  0.03495085     0.32320
O2161       O  0.96157643  0.92991043  0.04306896    -1.30940
O2162       O  0.89505877  0.54778717  0.11266425    -0.86710
O2163       O  0.00501664  0.00754988  0.45926917    -0.88210
O2164       O  0.50794063  0.54385549  0.13450567    -0.86790
O2165       O  0.85596291  0.94759240  0.08092457    -0.86840
O2166       O  0.91633171  0.91888189  0.99326997    -0.86550
O2167       O  0.56709274  0.52062196  0.04592318    -0.86360
O2168       O  0.98193490  0.58880413  0.03434574    -0.86730
O2169       O  0.89556727  0.53311809  0.99883919    -0.86190
O2170       O  0.52290819  0.57388115  0.06686624    -0.87260
O2171       O  0.87524203  0.97858641  0.00666019    -0.86410
O2172       O  0.95314722  0.53300770  0.15465743    -0.86810
O2173       O  0.55620003  0.99080973  0.00120819    -0.86530
O2174       O  0.97065044  0.93168418  0.47205906    -0.86180
O2175       O  0.86787250  0.97560646  0.12651241    -0.86590
O2176       O  0.90899371  0.57037091  0.05945403    -0.86890
O2177       O  0.97097215  0.54753673  0.47308990    -0.88230
Zr2178     Zr  0.92521455  0.99744025  0.11828589     2.83100
Zr2179     Zr  0.99906686  0.96704134  0.00856885     2.83500
Zr2180     Zr  0.51569371  0.51556316  0.08342549     2.84090
Zr2181     Zr  0.90824882  0.94867319  0.04356672     2.83360
Zr2182     Zr  0.94595034  0.53738062  0.02954989     2.84220
O2183       O  0.94537265  0.98535161  0.00823767    -1.08800
O2184       O  0.96252955  0.53447172  0.08382778    -1.08300
C2185       C  0.89315973  0.57013452  0.08842745     1.06360
C2186       C  0.99266656  0.53565968  0.45330343     1.08980
C2187       C  0.98295278  0.54667254  0.15588699     1.06530
C2188       C  0.84795159  0.95888296  0.10949223     1.06890
C2189       C  0.94139796  0.91625322  0.47184210     1.06480
C2190       C  0.57505654  0.00984803  0.01727657     1.06030
C2191       C  0.50859546  0.59551422  0.04944721     1.06450
C2192       C  0.87390792  0.50867294  0.99493124     1.05970
H2193       H  0.51458522  0.53509022  0.01573986     0.32650
O2194       O  0.99926080  0.51919586  0.02938308    -1.29900
H2195       H  0.88609001  0.50791199  0.06405642     0.32670
O2196       O  0.90830456  0.00066443  0.06404760    -1.31280
C2197       C  0.96607949  0.91567187  0.22634625    -0.20540
C2198       C  0.93653319  0.91774755  0.21047843    -0.07100
C2199       C  0.90672312  0.90025557  0.22510755     0.13770
C2200       C  0.90737691  0.87958604  0.25444769    -0.20590
C2201       C  0.93735270  0.87605748  0.26907157    -0.07110
C2202       C  0.96680184  0.89511040  0.25563720     0.13750
C2203       C  0.99912196  0.89304730  0.27172831    -0.23940
H2204       H  0.98899840  0.92904772  0.21488990     0.15040
H2205       H  0.88482454  0.86510459  0.26523137     0.15070
C2206       C  0.87492436  0.90152973  0.20846345    -0.23890
H2207       H  0.51972864  0.90964447  0.25797442     0.05280
H2208       H  0.00651095  0.86733456  0.27225658     0.08510
H2209       H  0.99594822  0.90043071  0.29762683     0.08510
H2210       H  0.87864058  0.89179912  0.18364462     0.08490
H2211       H  0.86816143  0.92746110  0.20550947     0.08490
H2212       H  0.85393602  0.88624210  0.22313153     0.05270
C2213       C  0.90802077  0.86631861  0.40302859    -0.20540
C2214       C  0.93739124  0.85338803  0.39060205    -0.07100
C2215       C  0.96690633  0.85900795  0.40669897     0.13770
C2216       C  0.96655963  0.87823818  0.43402830    -0.20590
C2217       C  0.93777599  0.89288528  0.44543714    -0.07110
C2218       C  0.90774613  0.88596926  0.43029682     0.13750
C2219       C  0.87586609  0.90045029  0.44140172    -0.23940
H2220       H  0.88555051  0.86222342  0.39028522     0.15040
H2221       H  0.98946806  0.88271021  0.44598181     0.15070
C2222       C  0.99948249  0.84676471  0.39390980    -0.23890
H2223       H  0.85540739  0.89365583  0.42564491     0.05280
H2224       H  0.87995015  0.92789453  0.43975492     0.08510
H2225       H  0.86745255  0.89092566  0.46742925     0.08510
H2226       H  0.00586414  0.85616050  0.36745738     0.08490
H2227       H  0.99754862  0.81931906  0.39607759     0.08490
H2228       H  0.52042826  0.85532197  0.40832551     0.05270
C2229       C  0.96880540  0.55605949  0.21480732    -0.20540
C2230       C  0.98818675  0.56632215  0.18479619    -0.07100
C2231       C  0.50995901  0.59567894  0.18297805     0.13770
C2232       C  0.51241353  0.61321236  0.21152139    -0.20590
C2233       C  0.49338863  0.60244315  0.24156048    -0.07110
C2234       C  0.97049723  0.57404066  0.24286395     0.13750
C2235       C  0.94666588  0.56245137  0.27294280    -0.23940
H2236       H  0.95165037  0.53390471  0.21636422     0.15040
H2237       H  0.52973965  0.63516902  0.21060496     0.15070
C2238       C  0.52995557  0.60922175  0.15107269    -0.23890
H2239       H  0.92071516  0.56032211  0.26543726     0.05280
H2240       H  0.94717717  0.57972522  0.29287944     0.08510
H2241       H  0.45268769  0.53776145  0.28325439     0.08510
H2242       H  0.01299233  0.61309346  0.13103848     0.08490
H2243       H  0.54843983  0.59180024  0.14358386     0.08490
H2244       H  0.54398285  0.63338057  0.15388229     0.05270
C2245       C  0.50648491  0.61062131  0.39023358    -0.20540
C2246       C  0.51916166  0.59756178  0.36116421    -0.07100
C2247       C  0.52904602  0.56463138  0.36433891     0.13770
C2248       C  0.01979370  0.54440790  0.39421630    -0.20590
C2249       C  0.00434081  0.55728826  0.42227588    -0.07110
C2250       C  0.00109625  0.59188279  0.42067921     0.13750
C2251       C  0.99260795  0.61024452  0.45080136    -0.23940
H2252       H  0.49899860  0.63551043  0.38961540     0.15040
H2253       H  0.02532164  0.51871645  0.39570232     0.15070
C2254       C  0.55096955  0.55061658  0.33792671    -0.23890
H2255       H  0.99672986  0.63752978  0.44521429     0.05280
H2256       H  0.50903624  0.60361141  0.47062417     0.08510
H2257       H  0.96585903  0.60461833  0.45965329     0.08510
H2258       H  0.56104599  0.56959002  0.31771733     0.08490
H2259       H  0.53683564  0.52986060  0.32735157     0.08490
H2260       H  0.57289663  0.54106409  0.34922472     0.05270
C2261       C  0.50785532  0.73115526  0.29063777    -0.20540
C2262       C  0.98969132  0.70247156  0.30590864    -0.07100
C2263       C  0.95969875  0.70524419  0.32579548     0.13770
C2264       C  0.94845780  0.73665360  0.32971429    -0.20590
C2265       C  0.96643575  0.76548864  0.31431046    -0.07110
C2266       C  0.99684373  0.76269594  0.29484771     0.13750
C2267       C  0.01866696  0.79280654  0.27973046    -0.23940
H2268       H  0.53096966  0.72884049  0.27571588     0.15040
H2269       H  0.92537815  0.73874965  0.34478636     0.15070
C2270       C  0.93925483  0.67499611  0.34258928    -0.23890
H2271       H  0.54279573  0.78602493  0.26811485     0.05280
H2272       H  0.52427027  0.80967197  0.29934913     0.08510
H2273       H  0.00619831  0.80604165  0.25992270     0.08510
H2274       H  0.95397769  0.66196959  0.36069246     0.08490
H2275       H  0.93197670  0.65796220  0.32363875     0.08490
H2276       H  0.91609620  0.68152342  0.35639561     0.05270
C2277       C  0.64250321  0.54742910  0.45260923    -0.20540
C2278       C  0.66767573  0.52630290  0.45814374    -0.07100
C2279       C  0.66339733  0.50243251  0.48601481     0.13770
C2280       C  0.63371213  0.99962225  0.00684163    -0.20590
C2281       C  0.60823069  0.51981140  0.50050432    -0.07110
C2282       C  0.61270955  0.54439606  0.47352897     0.13750
C2283       C  0.58555705  0.56657490  0.46624513    -0.23940
H2284       H  0.64577120  0.56559639  0.43129940     0.15040
H2285       H  0.62960231  0.98038844  0.02720441     0.15070
C2286       C  0.68911246  0.97857912  0.49317352    -0.23890
H2287       H  0.59312952  0.58460110  0.44439285     0.05280
H2288       H  0.57953124  0.58062556  0.48816719     0.08510
H2289       H  0.56283761  0.55142079  0.46080437     0.08510
H2290       H  0.71130328  0.49222319  0.50170231     0.08490
H2291       H  0.69610114  0.96587054  0.47057222     0.08490
H2292       H  0.67974039  0.95924711  0.01338456     0.05420
C2293       C  0.78590434  0.50089526  0.46877778    -0.20540
C2294       C  0.78841772  0.52167605  0.43930729    -0.07100
C2295       C  0.81940457  0.53943992  0.42821825     0.13770
C2296       C  0.84717286  0.53550752  0.44696792    -0.20590
C2297       C  0.84425104  0.51463888  0.47666194    -0.07110
C2298       C  0.81270684  0.49802156  0.98817958     0.13750
C2299       C  0.80630093  0.97819298  0.02163515    -0.23940
H2300       H  0.76240322  0.48685039  0.47693533     0.15040
H2301       H  0.87120899  0.54843672  0.43828495     0.15070
C2302       C  0.82303836  0.56292613  0.39728678    -0.23890
H2303       H  0.77925824  0.97102020  0.02813571     0.05280
H2304       H  0.81532051  0.49321163  0.04152408     0.08510
H2305       H  0.81880573  0.95489876  0.02142254     0.08510
H2306       H  0.80501904  0.58202578  0.39976602     0.08490
H2307       H  0.81822942  0.54921834  0.37518495     0.08490
H2308       H  0.84859352  0.57572737  0.39297078     0.05270
C2309       C  0.59308899  0.92474315  0.15689036    -0.20540
C2310       C  0.57335913  0.95139532  0.15914472    -0.07100
C2311       C  0.58040447  0.97497037  0.18237611     0.13770
C2312       C  0.60944720  0.97369402  0.19922909    -0.20590
C2313       C  0.63139691  0.94920719  0.19386482    -0.07110
C2314       C  0.62184503  0.92311310  0.17417263     0.13750
C2315       C  0.64140091  0.89330765  0.17066451    -0.23940
H2316       H  0.58687489  0.90569953  0.14065586     0.15040
H2317       H  0.61608121  0.99321286  0.21500011     0.15070
C2318       C  0.55754374  0.00168599  0.18946367    -0.23890
H2319       H  0.62457108  0.87040580  0.17755562     0.05280
H2320       H  0.66207614  0.89271878  0.18716227     0.08510
H2321       H  0.65180019  0.89299330  0.14441208     0.08510
H2322       H  0.53162910  0.99039703  0.19610997     0.08490
H2323       H  0.55808035  0.01978662  0.16748515     0.08490
H2324       H  0.56520875  0.01569843  0.21059521     0.05270
C2325       C  0.77027168  0.92836890  0.16593303    -0.20540
C2326       C  0.75424483  0.95753888  0.16633438    -0.07100
C2327       C  0.76659221  0.98519545  0.14440296     0.13770
C2328       C  0.79557754  0.98329923  0.12321858    -0.20590
C2329       C  0.81306478  0.95476800  0.12424571    -0.07110
C2330       C  0.80011918  0.92692717  0.14602485     0.13750
C2331       C  0.81802702  0.89627144  0.15114877    -0.23940
H2332       H  0.76056385  0.90723529  0.18292366     0.15040
H2333       H  0.80598078  0.50502654  0.10741574     0.15070
C2334       C  0.75008522  0.51712051  0.14451982    -0.23890
H2335       H  0.81840652  0.88956570  0.17818190     0.05280
H2336       H  0.84422522  0.89972133  0.14022890     0.08510
H2337       H  0.80424360  0.87536317  0.14053104     0.08510
H2338       H  0.75011370  0.52650319  0.16964719     0.08490
H2339       H  0.72392400  0.51283539  0.13803266     0.08490
H2340       H  0.76329008  0.53652834  0.12623136     0.05270
C2341       C  0.69343608  0.96090829  0.30884820    -0.20540
C2342       C  0.70905479  0.98031212  0.28080299    -0.07100
C2343       C  0.72827285  0.01014596  0.28562787     0.13770
C2344       C  0.73158870  0.51937618  0.31816819    -0.20590
C2345       C  0.71581704  0.50008258  0.34610770    -0.07110
C2346       C  0.69657027  0.97031949  0.34137575     0.13750
C2347       C  0.68022211  0.44774361  0.37045817    -0.23940
H2348       H  0.67876651  0.93810191  0.30523831     0.15040
H2349       H  0.74622901  0.54217645  0.32188223     0.15070
C2350       C  0.74404950  0.03334222  0.25672512    -0.23890
H2351       H  0.66834244  0.92447005  0.36221360     0.05280
H2352       H  0.66037903  0.45998680  0.38407335     0.08510
H2353       H  0.69920334  0.94102976  0.38766267     0.08510
H2354       H  0.72493007  0.03953147  0.23948275     0.08490
H2355       H  0.76456259  0.02202337  0.24313205     0.08490
H2356       H  0.75504685  0.05689580  0.26518747     0.05270
C2357       C  0.87191843  0.62150120  0.06468783    -0.20540
C2358       C  0.87141917  0.59806024  0.09237661    -0.07100
C2359       C  0.85029306  0.60235051  0.12136220     0.13770
C2360       C  0.83152260  0.63024909  0.12188732    -0.20590
C2361       C  0.83293436  0.65338415  0.09410521    -0.07110
C2362       C  0.85316875  0.64868953  0.06508305     0.13750
C2363       C  0.85644200  0.67225924  0.03394877    -0.23940
H2364       H  0.88744778  0.61916358  0.04198352     0.15040
H2365       H  0.81609474  0.63432983  0.14415774     0.15070
C2366       C  0.84726324  0.57810019  0.15173950    -0.23890
H2367       H  0.84870467  0.65866957  0.01257903     0.05280
H2368       H  0.88291244  0.68233402  0.02851808     0.08510
H2369       H  0.84108922  0.69350908  0.03567266     0.08510
H2370       H  0.87189529  0.57703066  0.16207424     0.08490
H2371       H  0.83800926  0.55317060  0.14508354     0.08490
H2372       H  0.82938297  0.58536527  0.17167328     0.05270
C2373       C  0.83736847  0.80441947  0.09603271    -0.20540
C2374       C  0.85279075  0.77488731  0.09380963    -0.07100
C2375       C  0.88849252  0.77703838  0.08998474     0.13770
C2376       C  0.90674030  0.80838825  0.08887478    -0.20590
C2377       C  0.89062632  0.83766421  0.08682280    -0.07110
C2378       C  0.85517286  0.83513020  0.08799438     0.13750
C2379       C  0.83532050  0.86331883  0.07688605    -0.23940
H2380       H  0.81043877  0.80355098  0.10027220     0.15040
H2381       H  0.93380679  0.81013435  0.08677672     0.15070
C2382       C  0.90804354  0.74752079  0.08469295    -0.23890
H2383       H  0.80793308  0.85704678  0.08156689     0.05280
H2384       H  0.84071760  0.86935781  0.04963047     0.08510
H2385       H  0.84183451  0.88552776  0.08966332     0.08510
H2386       H  0.89746737  0.73281312  0.06532719     0.08490
H2387       H  0.90835672  0.73214120  0.10846299     0.08490
H2388       H  0.93456398  0.75519469  0.07599415     0.05270
C2389       C  0.53769446  0.68628506  0.52095441    -0.20540
C2390       C  0.56857828  0.68963594  0.03510492    -0.07100
C2391       C  0.57556338  0.66442041  0.05899876     0.13770
C2392       C  0.55586543  0.63434955  0.06226817    -0.20590
C2393       C  0.52612264  0.62975267  0.04631790    -0.07110
C2394       C  0.51529903  0.65765821  0.02837042     0.13750
C2395       C  0.97973526  0.65895384  0.51967522    -0.23940
H2396       H  0.53063978  0.70630275  0.50448580     0.15040
H2397       H  0.56362862  0.61467282  0.07872496     0.15070
C2398       C  0.60204504  0.66864669  0.08319651    -0.23890
H2399       H  0.97547624  0.68352428  0.50758605     0.05280
H2400       H  0.96264170  0.65445736  0.54279836     0.08510
H2401       H  0.97290840  0.64027034  0.50252768     0.08510
H2402       H  0.61234926  0.69467796  0.08371948     0.08490
H2403       H  0.62251099  0.65280020  0.07720890     0.08490
H2404       H  0.59088084  0.66096596  0.10890945     0.05270
C2405       C  0.55825126  0.85675216  0.49939987    -0.20540
C2406       C  0.55291048  0.86686418  0.03185652    -0.07100
C2407       C  0.56802072  0.85011610  0.05816193     0.13770
C2408       C  0.58629818  0.82315177  0.05167155    -0.20590
C2409       C  0.58973598  0.81197045  0.01985193    -0.07110
C2410       C  0.57626083  0.82924388  0.49320035     0.13750
C2411       C  0.58057290  0.81830778  0.45846334    -0.23940
H2412       H  0.54724727  0.86955020  0.47904776     0.15040
H2413       H  0.59683387  0.80966903  0.07194481     0.15070
C2414       C  0.56568732  0.86058277  0.09319082    -0.23890
H2415       H  0.56888632  0.83469763  0.44036693     0.05280
H2416       H  0.56882309  0.79270317  0.45796994     0.08510
H2417       H  0.60759702  0.81888395  0.45038653     0.08510
H2418       H  0.53986203  0.85506617  0.10502871     0.08490
H2419       H  0.57328937  0.88746813  0.09233706     0.08490
H2420       H  0.58239135  0.84739727  0.10919595     0.05270
C2421       C  0.70474197  0.72070915  0.01577860    -0.20540
C2422       C  0.68413089  0.74138595  0.03284268    -0.07100
C2423       C  0.69459518  0.75410577  0.06245045     0.13770
C2424       C  0.72515782  0.74609425  0.07384611    -0.20590
C2425       C  0.74561920  0.72530754  0.05700732    -0.07110
C2426       C  0.73542395  0.71264450  0.02737518     0.13750
C2427       C  0.75709553  0.69143437  0.00746040    -0.23940
H2428       H  0.69654752  0.71052189  0.99344741     0.15040
H2429       H  0.73310813  0.75589337  0.09646865     0.15070
C2430       C  0.67306650  0.77479901  0.08329514    -0.23890
H2431       H  0.74617674  0.68530183  0.98404351     0.05280
H2432       H  0.75980503  0.66777405  0.02206076     0.08510
H2433       H  0.78213541  0.70478205  0.00074657     0.08510
H2434       H  0.64798769  0.76147523  0.08985210     0.08490
H2435       H  0.67058017  0.79899390  0.06959804     0.08490
H2436       H  0.68402729  0.78010280  0.10691576     0.05270
C2437       C  0.60338640  0.77959718  0.01686911     0.02900
C2438       C  0.63780420  0.77667183  0.51757684    -0.13250
C2439       C  0.64982935  0.74528729  0.52247811     0.00400
C2440       C  0.62729636  0.71697378  0.52339621    -0.11780
C2441       C  0.59255357  0.71953670  0.02550628     0.02890
C2442       C  0.58097715  0.75108950  0.02140511    -0.11200
H2443       H  0.65484106  0.79881701  0.51640903     0.08480
H2444       H  0.63670810  0.69280118  0.52608216     0.06010
H2445       H  0.55442791  0.75386978  0.02411422     0.05860
C2446       C  0.81670938  0.68443990  0.59601746     0.02900
C2447       C  0.83658849  0.71257813  0.60306366    -0.13250
C2448       C  0.83006176  0.74424954  0.59038847     0.00400
C2449       C  0.80090374  0.74703114  0.57339498    -0.11780
C2450       C  0.77826390  0.71960348  0.57039901     0.02890
C2451       C  0.78659570  0.68798161  0.58133822    -0.11200
H2452       H  0.85811641  0.70902736  0.61662573     0.08480
H2453       H  0.79531910  0.77076069  0.56219537     0.06010
H2454       H  0.77064026  0.66617969  0.57730250     0.05860
C2455       C  0.66559285  0.95416861  0.70507081     0.02900
C2456       C  0.67095684  0.96283026  0.73750605    -0.13250
C2457       C  0.70361313  0.96956104  0.74692245     0.00400
C2458       C  0.73082541  0.96606387  0.72383625    -0.11780
C2459       C  0.72562531  0.95900462  0.69109213     0.02890
C2460       C  0.69319736  0.95350545  0.68178170    -0.11200
H2461       H  0.64975384  0.96483975  0.75523426     0.08480
H2462       H  0.75608899  0.96912668  0.73111003     0.06010
H2463       H  0.68949378  0.94875219  0.65621759     0.05860
C2464       C  0.75694902  0.52541497  0.92314170     0.02900
C2465       C  0.75253523  0.51484159  0.89126940    -0.13250
C2466       C  0.72039750  0.51156723  0.87976264     0.00400
C2467       C  0.69269346  0.51824296  0.90085597    -0.11780
C2468       C  0.69685259  0.52735432  0.93321737     0.02890
C2469       C  0.72902989  0.53296664  0.94320073    -0.11200
H2470       H  0.77361787  0.50745361  0.87615787     0.08480
H2471       H  0.66779311  0.51511651  0.89263519     0.06010
H2472       H  0.73215031  0.54041533  0.96806853     0.05860
C2473       C  0.49997377  0.61976119  0.77160726     0.02900
C2474       C  0.50947053  0.60185785  0.79988378    -0.13250
C2475       C  0.51711286  0.61760720  0.82850442     0.00400
C2476       C  0.51557658  0.65236565  0.82749307    -0.11780
C2477       C  0.50205738  0.66960358  0.80113054     0.02890
C2478       C  0.49558802  0.65354971  0.77256785    -0.11200
H2479       H  0.50895109  0.57527346  0.79977087     0.08480
H2480       H  0.52217170  0.66607788  0.84829941     0.06010
H2481       H  0.48563613  0.66684182  0.75184016     0.05860
C2482       C  0.93829823  0.83998241  0.85745560     0.02900
C2483       C  0.94793699  0.80807097  0.85238975    -0.13250
C2484       C  0.95341130  0.79809595  0.81986950     0.00400
C2485       C  0.94727293  0.81974213  0.79271318    -0.11780
C2486       C  0.93798421  0.85159714  0.79771048     0.02890
C2487       C  0.93320144  0.86144491  0.82993667    -0.11200
H2488       H  0.95231098  0.79151069  0.87356112     0.08480
H2489       H  0.95058560  0.81224471  0.76758072     0.06010
H2490       H  0.92720686  0.88654383  0.83348542     0.05860
O2491       O  0.52951160  0.91714332  0.51436201    -0.86720
O2492       O  0.92564031  0.95961429  0.66888758    -0.86890
O2493       O  0.52688783  0.93180325  0.62997992    -0.88550
O2494       O  0.93748194  0.87638995  0.59591167    -0.87310
O2495       O  0.89824722  0.89127021  0.56105840    -0.86900
O2496       O  0.54902146  0.98586285  0.62066709    -0.88270
O2497       O  0.95720008  0.91712581  0.65524593    -0.86750
O2498       O  0.51458850  0.89245774  0.56685604    -0.86340
Zr2499     Zr  0.97773939  0.92605170  0.59729759     2.84310
O2500       O  0.92425598  0.94481545  0.59803818    -1.08310
O2501       O  0.51589173  0.96312183  0.56300505    -1.09040
C2502       C  0.53100729  0.89404313  0.53798866     1.06390
C2503       C  0.93951000  0.93256751  0.67592051     1.06330
C2504       C  0.54798515  0.95639298  0.63505451     1.09310
C2505       C  0.91046279  0.87039217  0.58093787     1.07090
H2506       H  0.98531298  0.97788439  0.64000960     0.32650
O2507       O  0.97838436  0.97862806  0.61765458    -1.29260
H2508       H  0.96133812  0.90815857  0.53495087     0.32320
O2509       O  0.96157636  0.92991048  0.54306898    -1.30940
O2510       O  0.89505879  0.54778717  0.61266421    -0.86710
O2511       O  0.00501673  0.00754986  0.95926916    -0.88210
O2512       O  0.50794071  0.54385550  0.63450571    -0.86790
O2513       O  0.85596284  0.94759247  0.58092459    -0.86840
O2514       O  0.91633163  0.91888193  0.49327000    -0.86550
O2515       O  0.56709282  0.52062202  0.54592323    -0.86360
O2516       O  0.98193497  0.58880415  0.53434576    -0.86730
O2517       O  0.89556737  0.53311810  0.49883919    -0.86190
O2518       O  0.52290825  0.57388119  0.56686626    -0.87260
O2519       O  0.87524196  0.97858645  0.50666021    -0.86410
O2520       O  0.95314728  0.53300775  0.65465742    -0.86810
O2521       O  0.55619995  0.99080977  0.50120819    -0.86530
O2522       O  0.97065052  0.93168414  0.97205903    -0.86180
O2523       O  0.86787243  0.97560655  0.62651241    -0.86590
O2524       O  0.90899379  0.57037094  0.55945400    -0.86890
O2525       O  0.97097206  0.54753671  0.97308988    -0.88230
Zr2526     Zr  0.92521451  0.99744029  0.61828591     2.83100
Zr2527     Zr  0.99906678  0.96704139  0.50856887     2.83500
Zr2528     Zr  0.51569379  0.51556320  0.58342552     2.84090
Zr2529     Zr  0.90824875  0.94867323  0.54356675     2.83360
Zr2530     Zr  0.94595043  0.53738064  0.52954990     2.84220
O2531       O  0.94537257  0.98535167  0.50823769    -1.08800
O2532       O  0.96252963  0.53447176  0.58382778    -1.08300
C2533       C  0.89315976  0.57013454  0.58842741     1.06360
C2534       C  0.99266647  0.53565965  0.95330342     1.08980
C2535       C  0.98295285  0.54667256  0.65588702     1.06530
C2536       C  0.84795152  0.95888306  0.60949224     1.06890
C2537       C  0.94139803  0.91625319  0.97184207     1.06480
C2538       C  0.57505647  0.00984807  0.51727656     1.06030
C2539       C  0.50859552  0.59551426  0.54944723     1.06450
C2540       C  0.87390801  0.50867296  0.49493124     1.05970
H2541       H  0.51458532  0.53509025  0.51573989     0.32650
O2542       O  0.99926089  0.51919589  0.52938311    -1.29900
H2543       H  0.88609008  0.50791200  0.56405640     0.32670
O2544       O  0.90830449  0.00066448  0.56404763    -1.31280
C2545       C  0.96607940  0.91567195  0.72634629    -0.20540
C2546       C  0.93653312  0.91774755  0.71047843    -0.07100
C2547       C  0.90672309  0.90025545  0.72510748     0.13770
C2548       C  0.90737690  0.87958592  0.75444762    -0.20590
C2549       C  0.93735267  0.87605745  0.76907155    -0.07110
C2550       C  0.96680178  0.89511047  0.75563724     0.13750
C2551       C  0.99912189  0.89304743  0.77172837    -0.23940
H2552       H  0.98899830  0.92904787  0.71488998     0.15040
H2553       H  0.88482455  0.86510440  0.76523126     0.15070
C2554       C  0.87492436  0.90152949  0.70846333    -0.23890
H2555       H  0.51972857  0.90964463  0.75797447     0.05280
H2556       H  0.00651094  0.86733472  0.77225663     0.08510
H2557       H  0.99594810  0.90043081  0.79762690     0.08510
H2558       H  0.87864066  0.89179890  0.68364450     0.08490
H2559       H  0.86816133  0.92746083  0.70550934     0.08490
H2560       H  0.85393604  0.88624180  0.72313138     0.05270
C2561       C  0.90802082  0.86631859  0.90302858    -0.20540
C2562       C  0.93739128  0.85338801  0.89060202    -0.07100
C2563       C  0.96690638  0.85900793  0.90669892     0.13770
C2564       C  0.96655969  0.87823817  0.93402825    -0.20590
C2565       C  0.93777605  0.89288526  0.94543711    -0.07110
C2566       C  0.90774619  0.88596924  0.93029681     0.13750
C2567       C  0.87586615  0.90045026  0.94140172    -0.23940
H2568       H  0.88555055  0.86222339  0.89028522     0.15040
H2569       H  0.98946813  0.88271019  0.94598175     0.15070
C2570       C  0.99948253  0.84676470  0.89390974    -0.23890
H2571       H  0.85540744  0.89365580  0.92564492     0.05280
H2572       H  0.87995021  0.92789450  0.93975493     0.08510
H2573       H  0.86745262  0.89092563  0.96742925     0.08510
H2574       H  0.00586417  0.85616050  0.86745731     0.08490
H2575       H  0.99754867  0.81931905  0.89607752     0.08490
H2576       H  0.52042833  0.85532196  0.90832544     0.05270
C2577       C  0.96880543  0.55605951  0.71480733    -0.20540
C2578       C  0.98818679  0.56632217  0.68479621    -0.07100
C2579       C  0.50995907  0.59567896  0.68297807     0.13770
C2580       C  0.51241359  0.61321237  0.71152141    -0.20590
C2581       C  0.49338867  0.60244317  0.74156049    -0.07110
C2582       C  0.97049724  0.57404068  0.74286396     0.13750
C2583       C  0.94666587  0.56245139  0.77294280    -0.23940
H2584       H  0.95165039  0.53390473  0.71636422     0.15040
H2585       H  0.52973971  0.63516903  0.71060499     0.15070
C2586       C  0.52995565  0.60922177  0.65107272    -0.23890
H2587       H  0.92071516  0.56032214  0.76543725     0.05280
H2588       H  0.94717716  0.57972524  0.79287945     0.08510
H2589       H  0.45268769  0.53776149  0.78325439     0.08510
H2590       H  0.01299241  0.61309348  0.63103852     0.08490
H2591       H  0.54843991  0.59180025  0.64358390     0.08490
H2592       H  0.54398294  0.63338058  0.65388233     0.05270
C2593       C  0.50648489  0.61062131  0.89023360    -0.20540
C2594       C  0.51916165  0.59756178  0.86116423    -0.07100
C2595       C  0.52904598  0.56463137  0.86433893     0.13770
C2596       C  0.01979361  0.54440786  0.89421629    -0.20590
C2597       C  0.00434075  0.55728823  0.92227588    -0.07110
C2598       C  0.00109628  0.59188277  0.92067924     0.13750
C2599       C  0.99260804  0.61024450  0.95080141    -0.23940
H2600       H  0.49899861  0.63551044  0.88961542     0.15040
H2601       H  0.02532150  0.51871639  0.89570230     0.15070
C2602       C  0.55096952  0.55061656  0.83792674    -0.23890
H2603       H  0.99673001  0.63752976  0.94521436     0.05280
H2604       H  0.50903616  0.60361138  0.97062419     0.08510
H2605       H  0.96585911  0.60461836  0.95965333     0.08510
H2606       H  0.56104599  0.56959000  0.81771738     0.08490
H2607       H  0.53683561  0.52986060  0.82735159     0.08490
H2608       H  0.57289658  0.54106405  0.84922477     0.05270
C2609       C  0.50785536  0.73115527  0.79063775    -0.20540
C2610       C  0.98969135  0.70247155  0.80590866    -0.07100
C2611       C  0.95969878  0.70524419  0.82579551     0.13770
C2612       C  0.94845782  0.73665359  0.82971429    -0.20590
C2613       C  0.96643575  0.76548863  0.81431044    -0.07110
C2614       C  0.99684373  0.76269593  0.79484769     0.13750
C2615       C  0.01866694  0.79280654  0.77973041    -0.23940
H2616       H  0.53096969  0.72884050  0.77571586     0.15040
H2617       H  0.92537817  0.73874964  0.84478637     0.15070
C2618       C  0.93925489  0.67499611  0.84258934    -0.23890
H2619       H  0.54279575  0.78602494  0.76811480     0.05280
H2620       H  0.52427028  0.80967199  0.79934907     0.08510
H2621       H  0.00619828  0.80604163  0.75992265     0.08510
H2622       H  0.95397776  0.66196961  0.86069253     0.08490
H2623       H  0.93197676  0.65796218  0.82363883     0.08490
H2624       H  0.91609625  0.68152342  0.85639567     0.05270
C2625       C  0.64250311  0.54742897  0.95260913    -0.20540
C2626       C  0.66767563  0.52630278  0.95814367    -0.07100
C2627       C  0.66339723  0.50243243  0.98601478     0.13770
C2628       C  0.63371204  0.99962224  0.50684160    -0.20590
C2629       C  0.60823059  0.51981134  0.00050426    -0.07110
C2630       C  0.61270945  0.54439596  0.97352888     0.13750
C2631       C  0.58555696  0.56657480  0.96624500    -0.23940
H2632       H  0.64577110  0.56559623  0.93129928     0.15040
H2633       H  0.62960222  0.98038843  0.52720438     0.15070
C2634       C  0.68911257  0.97857918  0.99317357    -0.23890
H2635       H  0.59312942  0.58460097  0.94439271     0.05280
H2636       H  0.57953115  0.58062548  0.98816705     0.08510
H2637       H  0.56283751  0.55142068  0.96080427     0.08510
H2638       H  0.71130318  0.49222315  0.00170229     0.08490
H2639       H  0.69610126  0.96587060  0.97057227     0.08490
H2640       H  0.67974027  0.95924705  0.51338451     0.05420
C2641       C  0.78590425  0.50089522  0.96877781    -0.20540
C2642       C  0.78841762  0.52167597  0.93930728    -0.07100
C2643       C  0.81940448  0.53943983  0.92821822     0.13770
C2644       C  0.84717277  0.53550746  0.94696789    -0.20590
C2645       C  0.84425094  0.51463886  0.97666193    -0.07110
C2646       C  0.81270694  0.49802156  0.48817956     0.13750
C2647       C  0.80630086  0.97819301  0.52163517    -0.23940
H2648       H  0.76240313  0.48685036  0.97693537     0.15040
H2649       H  0.87120890  0.54843664  0.93828490     0.15070
C2650       C  0.82303826  0.56292598  0.89728671    -0.23890
H2651       H  0.77925816  0.97102023  0.52813573     0.05280
H2652       H  0.81532058  0.49321155  0.54152406     0.08510
H2653       H  0.81880566  0.95489880  0.52142257     0.08510
H2654       H  0.80501895  0.58202564  0.89976591     0.08490
H2655       H  0.81822932  0.54921815  0.87518491     0.08490
H2656       H  0.84859343  0.57572722  0.89297068     0.05270
C2657       C  0.59308894  0.92474325  0.65689040    -0.20540
C2658       C  0.57335905  0.95139541  0.65914475    -0.07100
C2659       C  0.58040438  0.97497047  0.68237613     0.13770
C2660       C  0.60944711  0.97369414  0.69922912    -0.20590
C2661       C  0.63139684  0.94920733  0.69386485    -0.07110
C2662       C  0.62184498  0.92311322  0.67417266     0.13750
C2663       C  0.64140088  0.89330779  0.67066454    -0.23940
H2664       H  0.58687485  0.90569962  0.64065590     0.15040
H2665       H  0.61608111  0.99321298  0.71500013     0.15070
C2666       C  0.55754363  0.00168607  0.68946369    -0.23890
H2667       H  0.62457107  0.87040593  0.67755566     0.05280
H2668       H  0.66207612  0.89271894  0.68716230     0.08510
H2669       H  0.65180016  0.89299345  0.64441211     0.08510
H2670       H  0.53162900  0.99039710  0.69610999     0.08490
H2671       H  0.55808024  0.01978670  0.66748517     0.08490
H2672       H  0.56520863  0.01569852  0.71059524     0.05270
C2673       C  0.77027158  0.92836908  0.66593303    -0.20540
C2674       C  0.75424475  0.95753906  0.66633435    -0.07100
C2675       C  0.76659215  0.98519561  0.64440292     0.13770
C2676       C  0.79557748  0.98329936  0.62321854    -0.20590
C2677       C  0.81306470  0.95476812  0.62424570    -0.07110
C2678       C  0.80011909  0.92692731  0.64602487     0.13750
C2679       C  0.81802692  0.89627159  0.65114885    -0.23940
H2680       H  0.76056374  0.90723547  0.68292368     0.15040
H2681       H  0.80598089  0.50502631  0.60741630     0.15070
C2682       C  0.75008532  0.51711992  0.64452055    -0.23890
H2683       H  0.81840639  0.88956588  0.67818198     0.05280
H2684       H  0.84422514  0.89972148  0.64022900     0.08510
H2685       H  0.80424352  0.87536331  0.64053112     0.08510
H2686       H  0.75011378  0.52650237  0.66964801     0.08490
H2687       H  0.72392411  0.51283484  0.63803336     0.08490
H2688       H  0.76329016  0.53652790  0.62623225     0.05270
C2689       C  0.69343607  0.96090842  0.80884819    -0.20540
C2690       C  0.70905476  0.98031226  0.78080298    -0.07100
C2691       C  0.72827283  0.01014610  0.78562787     0.13770
C2692       C  0.73158873  0.51937565  0.81816819    -0.20590
C2693       C  0.71581699  0.50008218  0.84610774    -0.07110
C2694       C  0.69657029  0.97031958  0.84137574     0.13750
C2695       C  0.68022194  0.44774332  0.87045834    -0.23940
H2696       H  0.67876649  0.93810204  0.80523829     0.15040
H2697       H  0.74622907  0.54217592  0.82188217     0.15070
C2698       C  0.74404946  0.03334239  0.75672513    -0.23890
H2699       H  0.66834247  0.92447014  0.86221357     0.05280
H2700       H  0.66037884  0.45998657  0.88407342     0.08510
H2701       H  0.69920340  0.94102981  0.88766263     0.08510
H2702       H  0.72493001  0.03953165  0.73948278     0.08490
H2703       H  0.76456254  0.02202355  0.74313204     0.08490
H2704       H  0.75504681  0.05689595  0.76518750     0.05270
C2705       C  0.87191832  0.62150112  0.56468772    -0.20540
C2706       C  0.87141917  0.59806024  0.59237654    -0.07100
C2707       C  0.85029315  0.60235058  0.62136218     0.13770
C2708       C  0.83152269  0.63024916  0.62188729    -0.20590
C2709       C  0.83293436  0.65338415  0.59410513    -0.07110
C2710       C  0.85316866  0.64868946  0.56508293     0.13750
C2711       C  0.85644184  0.67225911  0.53394862    -0.23940
H2712       H  0.88744758  0.61916343  0.54198336     0.15040
H2713       H  0.81609491  0.63432995  0.64415774     0.15070
C2714       C  0.84726345  0.57810035  0.65173954    -0.23890
H2715       H  0.84870442  0.65866941  0.51257893     0.05280
H2716       H  0.88291227  0.68233386  0.52851783     0.08510
H2717       H  0.84108909  0.69350897  0.53567252     0.08510
H2718       H  0.87189554  0.57703085  0.66207419     0.08490
H2719       H  0.83800943  0.55317073  0.64508369     0.08490
H2720       H  0.82938325  0.58536548  0.67167336     0.05270
C2721       C  0.83736849  0.80441946  0.59603271    -0.20540
C2722       C  0.85279078  0.77488732  0.59380955    -0.07100
C2723       C  0.88849255  0.77703841  0.58998459     0.13770
C2724       C  0.90674031  0.80838828  0.58887466    -0.20590
C2725       C  0.89062632  0.83766424  0.58682278    -0.07110
C2726       C  0.85517285  0.83513021  0.58799442     0.13750
C2727       C  0.83532047  0.86331886  0.57688619    -0.23940
H2728       H  0.81043879  0.80355096  0.60027223     0.15040
H2729       H  0.93380681  0.81013440  0.58677655     0.15070
C2730       C  0.90804357  0.74752083  0.58469270    -0.23890
H2731       H  0.80793306  0.85704680  0.58156710     0.05280
H2732       H  0.84071750  0.86935787  0.54963062     0.08510
H2733       H  0.84183453  0.88552776  0.58966348     0.08510
H2734       H  0.89746736  0.73281321  0.56532694     0.08490
H2735       H  0.90835679  0.73214120  0.60846270     0.08490
H2736       H  0.93456399  0.75519476  0.57599387     0.05270
C2737       C  0.53769444  0.68628501  0.02095438    -0.20540
C2738       C  0.56857829  0.68963601  0.53510497    -0.07100
C2739       C  0.57556340  0.66442048  0.55899880     0.13770
C2740       C  0.55586547  0.63434961  0.56226820    -0.20590
C2741       C  0.52612269  0.62975272  0.54631793    -0.07110
C2742       C  0.51529906  0.65765825  0.52837044     0.13750
C2743       C  0.97973522  0.65895384  0.01967520    -0.23940
H2744       H  0.53063977  0.70630270  0.00448576     0.15040
H2745       H  0.56362867  0.61467288  0.57872499     0.15070
C2746       C  0.60204505  0.66864677  0.58319655    -0.23890
H2747       H  0.97547622  0.68352428  0.00758603     0.05280
H2748       H  0.96264167  0.65445737  0.04279835     0.08510
H2749       H  0.97290834  0.64027034  0.00252767     0.08510
H2750       H  0.61234927  0.69467805  0.58371952     0.08490
H2751       H  0.62251101  0.65280029  0.57720895     0.08490
H2752       H  0.59088086  0.66096604  0.60890949     0.05270
C2753       C  0.55825131  0.85675211  0.99939984    -0.20540
C2754       C  0.55291044  0.86686425  0.53185654    -0.07100
C2755       C  0.56802071  0.85011620  0.55816195     0.13770
C2756       C  0.58629818  0.82315186  0.55167158    -0.20590
C2757       C  0.58973596  0.81197053  0.51985197    -0.07110
C2758       C  0.57626087  0.82924382  0.99320031     0.13750
C2759       C  0.58057296  0.81830775  0.95846329    -0.23940
H2760       H  0.54724734  0.86955017  0.97904773     0.15040
H2761       H  0.59683388  0.80966915  0.57194484     0.15070
C2762       C  0.56568733  0.86058290  0.59319083    -0.23890
H2763       H  0.56888639  0.83469762  0.94036689     0.05280
H2764       H  0.56882314  0.79270314  0.95796988     0.08510
H2765       H  0.60759708  0.81888391  0.95038649     0.08510
H2766       H  0.53986205  0.85506629  0.60502874     0.08490
H2767       H  0.57328938  0.88746826  0.59233704     0.08490
H2768       H  0.58239138  0.84739741  0.60919595     0.05270
C2769       C  0.70474195  0.72070922  0.51577859    -0.20540
C2770       C  0.68413089  0.74138603  0.53284269    -0.07100
C2771       C  0.69459520  0.75410585  0.56245045     0.13770
C2772       C  0.72515785  0.74609431  0.57384609    -0.20590
C2773       C  0.74561920  0.72530759  0.55700730    -0.07110
C2774       C  0.73542393  0.71264455  0.52737516     0.13750
C2775       C  0.75709549  0.69143441  0.50746038    -0.23940
H2776       H  0.69654748  0.71052196  0.49344742     0.15040
H2777       H  0.73310818  0.75589342  0.59646863     0.15070
C2778       C  0.67306655  0.77479910  0.58329514    -0.23890
H2779       H  0.74617668  0.68530187  0.48404349     0.05280
H2780       H  0.75980498  0.66777408  0.52206073     0.08510
H2781       H  0.78213537  0.70478206  0.50074653     0.08510
H2782       H  0.64798774  0.76147534  0.58985212     0.08490
H2783       H  0.67058024  0.79899399  0.56959804     0.08490
H2784       H  0.68402736  0.78010289  0.60691576     0.05270
loop_ 
_geom_bond_atom_site_label_1 
_geom_bond_atom_site_label_2 
_geom_bond_distance 
_geom_bond_site_symmetry_2 
_ccdc_geom_bond_type 
C1            C6   1.402       .  A
C1          C350   1.405       .  A
C1          C669   1.477       .  S
C2            C3   1.407       .  A
C2          C349   1.405       .  A
C2            H7   1.083       .  S
C3            C4   1.403       .  A
C3          C334   1.494       .  S
C4          C353   1.410       .  A
C4            H8   1.083       .  S
C5            C6   1.403       .  A
C5          C352   1.410       .  A
C5          C650   1.497       .  S
C6            H9   1.083       .  S
C10          C11   1.403       .  A
C10          C15   1.406       .  A
C10         C273   1.473       .  S
C11          C12   1.402       .  A
C11          H16   1.076       .  S
C12          C13   1.415       .  A
C12         C286   1.507       .  S
C13          C14   1.401       .  A
C13          H17   1.083       .  S
C14          C15   1.403       .  A
C14         C337   1.491       .  S
C15          H18   1.082       .  S
C19          C20   1.410       .  A
C19          C24   1.403       .  A
C19         C225   1.488       .  S
C20          C21   1.410       .  A
C20          H25   1.083       .  S
C21          C22   1.406       .  A
C21         C254   1.494       .  S
C22          C23   1.402       .  A
C22          H26   1.082       .  S
C23          C24   1.394       .  A
C23         C238   1.474       .  S
C24          H27   1.084       .  S
C28          C29   1.407       .  A
C28          C33   1.403       .  A
C28         C206   1.486       .  S
C29          C30   1.410       .  A
C29          H34   1.083       .  S
C30          C31   1.408       .  A
C30         C257   1.490       .  S
C31          C32   1.404       .  A
C31          H35   1.083       .  S
C32          C33   1.395       .  A
C32         C190   1.483       .  S
C33          H36   1.084       .  S
C37          C38   1.404   1_655  A
C37          C42   1.402       .  A
C37         C145   1.479       .  S
C38          C39   1.406       .  A
C38          H43   1.080       .  S
C39          C40   1.417       .  A
C39         C158   1.510       .  S
C40          C41   1.402       .  A
C40          H44   1.081       .  S
C41          C42   1.399   1_455  A
C41        C1566   1.484   1_455  S
C42          H45   1.084       .  S
C46          C47   1.409       .  A
C46          C51   1.400       .  A
C46         C126   1.482       .  S
C47          C48   1.410       .  A
C47          H52   1.083       .  S
C48          C49   1.405       .  A
C48         C177   1.491       .  S
C49          C50   1.401       .  A
C49          H53   1.083       .  S
C50          C51   1.394       .  A
C50         C113   1.471       .  S
C51          H54   1.085       .  S
O55          C66   1.296       .  A
O55       Zr1483   2.461   1_455  S
O56          C67   1.296       .  A
O56         Zr90   2.466       .  S
O57          C68   1.298       .  A
O57       Zr1455   2.471   1_455  S
O58          C69   1.302       .  A
O58         Zr63   2.492       .  S
O59          C69   1.279       .  A
O59         Zr93   2.380       .  S
O60          C68   1.288       .  A
O60        Zr788   2.416       .  S
O61          C67   1.287       .  A
O61         Zr63   2.411       .  S
O62          C66   1.289       .  A
O62       Zr1455   2.424   1_455  S
Zr63       O1449   2.471       .  S
Zr63       O1454   2.424       .  S
Zr63         O64   2.344       .  S
Zr63         O73   2.332       .  S
Zr63         O71   2.345       .  S
Zr63       O1457   2.352       .  S
O64         Zr90   2.345       .  S
O64         Zr93   2.339       .  S
O65       Zr1455   2.352   1_455  S
O65       Zr1483   2.350   1_455  S
O65        Zr788   2.343       .  S
C66         C318   1.492       .  S
C67         C110   1.470       .  S
C68         C222   1.482       .  S
C69         C289   1.489       .  S
H70          O71   0.965       .  S
O71         Zr90   2.333       .  S
O71       Zr2180   2.329       .  S
H72          O73   0.965       .  S
O73         Zr91   2.343       .  S
O73         Zr93   2.339       .  S
O74          C97   1.296       .  A
O74        Zr786   2.469   1_545  S
O75         C794   1.297       .  A
O75        Zr439   2.471       .  S
O76        C1491   1.292   1_455  A
O76         Zr92   2.447       .  S
O77         C100   1.300       .  A
O77         Zr93   2.489       .  S
O78         C449   1.294       .  A
O78         Zr93   2.455   1_556  S
O79         C798   1.294       .  A
O79         Zr92   2.454       .  S
O80        C1495   1.297       .  A
O80         Zr94   2.475       .  S
O81         C104   1.296       .  A
O81         Zr94   2.463   1_556  S
O82         C103   1.287       .  A
O82         Zr92   2.403       .  S
O83         C800   1.285   1_554  A
O83         Zr93   2.404       .  S
O84          C99   1.288       .  A
O84        Zr786   2.415   1_545  S
O85         C102   1.287       .  A
O85       Zr1483   2.412   1_455  S
O86         C101   1.291       .  A
O86        Zr439   2.422       .  S
O87         C100   1.284       .  A
O87         Zr90   2.397       .  S
O88          C97   1.287       .  A
O88         Zr94   2.400       .  S
O89          C98   1.286       .  A
O89        Zr442   2.412       .  S
Zr90        O770   2.469       .  S
Zr90        O780   2.415       .  S
Zr90        O108   2.343       .  S
Zr90        O792   2.336       .  S
Zr91       O1447   2.461       .  S
Zr91        O423   2.471   1_554  S
Zr91       O1477   2.412       .  S
Zr91        O434   2.422   1_554  S
Zr91         O95   2.347       .  S
Zr91       O1457   2.350       .  S
Zr91        O802   2.338       .  S
Zr92        O756   2.416   1_545  S
Zr92        O761   2.343   1_545  S
Zr92       O2159   2.329   1_445  S
Zr92       O1488   2.335   1_455  S
Zr92       O1498   2.328   1_455  S
Zr93         O95   2.341       .  S
Zr93        O108   2.326       .  S
Zr94        O437   2.412   1_554  S
Zr94         O96   2.339       .  S
Zr94        O106   2.329       .  S
Zr94        O791   2.341   1_545  S
Zr94        O804   2.337       .  S
O95        Zr790   2.341       .  S
O96        Zr786   2.336   1_545  S
O96       Zr1484   2.335       .  S
C97         C270   1.500       .  S
C98         C161   1.497       .  S
C98         O771   1.297       .  A
C99         C142   1.482       .  S
C99        O1468   1.292       .  A
C100        C241   1.475       .  S
C101        C129   1.488       .  S
C101        O426   1.294       .  A
C102       C1237   1.463       .  S
C102        O775   1.294       .  A
C103        C305   1.501       .  S
C103       O1472   1.297   1_455  A
C104        C557   1.481       .  S
C104        O779   1.285   1_546  A
H105       O1498   0.965   1_455  S
O106       Zr787   2.338   1_545  S
O106      Zr1484   2.328       .  S
O106       H1497   0.965       .  S
H107        O804   0.965       .  S
O108       Zr790   2.337       .  S
O108        H803   0.965       .  S
C109        C110   1.402       .  A
C109        C114   1.400       .  A
C109        H116   1.085       .  S
C110        C111   1.409       .  A
C111        C112   1.404       .  A
C111        C118   1.497       .  S
C112        C113   1.400       .  A
C112        H117   1.084       .  S
C113        C114   1.411       .  A
C114        C115   1.507       .  S
C115        H120   1.109       .  S
C115        H121   1.110       .  S
C115       H1511   1.111       .  S
C118        H122   1.109       .  S
C118        H123   1.110       .  S
C118        H124   1.111       .  S
H119       C1507   1.111   1_455  S
C125        C126   1.406       .  A
C125        C130   1.408       .  A
C125        H132   1.084       .  S
C126        C127   1.411       .  A
C127        C128   1.399       .  A
C127        C134   1.509       .  S
C128        C129   1.408       .  A
C128        H133   1.084       .  S
C129        C130   1.416       .  A
C130        C131   1.507       .  S
C131        H135   1.111       .  S
C131        H136   1.111       .  S
C131        H137   1.110       .  S
C134        H138   1.111       .  S
C134        H139   1.108       .  S
C134       H1532   1.111       .  S
H140       C1526   1.111   1_455  S
C141        C142   1.406       .  A
C141        C146   1.397       .  A
C141        H148   1.085       .  S
C142       C1535   1.416       .  A
C143        C144   1.406       .  A
C143       C1534   1.416   1_455  A
C143        C150   1.507       .  S
C144        C145   1.404   1_455  A
C144        H149   1.084       .  S
C145       C1538   1.413       .  A
C146       C1537   1.413       .  A
C146        C147   1.509       .  S
C147        H151   1.111       .  S
C147        H152   1.108       .  S
C147       H1545   1.110       .  S
C150        H155   1.109       .  S
C150        H156   1.111       .  S
C150       H1546   1.111       .  S
H153       C1539   1.110       .  S
H154       C1542   1.111       .  S
C157        C158   1.402       .  A
C157       C1554   1.390       .  A
C157        H164   1.078   1_455  S
C158        C159   1.427       .  A
C159       C1552   1.415       .  A
C159        C166   1.506       .  S
C160        C161   1.406       .  A
C160       C1551   1.415       .  A
C160        H165   1.084       .  S
C161        C162   1.420       .  A
C162       C1549   1.390       .  A
C162        C163   1.505       .  S
C163        H167   1.112       .  S
C163        H169   1.109       .  S
C163       H1560   1.110       .  S
C166        H170   1.109       .  S
C166        H171   1.110       .  S
C166        H172   1.111       .  S
H168       C1555   1.110   1_455  S
C173       C1566   1.400   1_455  A
C173       C1570   1.408   1_455  A
C173        H180   1.084       .  S
C174        C175   1.415       .  A
C174       C1565   1.400       .  A
C174       C1433   1.484       .  S
C175        C176   1.405       .  A
C175        C182   1.508       .  S
C176        C177   1.403       .  A
C176        H181   1.084       .  S
C177        C178   1.421       .  A
C178       C1565   1.408       .  A
C178        C179   1.508       .  S
C179        H185   1.107       .  S
C179       H1575   1.111       .  S
C179       H1576   1.110       .  S
C182        H186   1.109       .  S
C182        H187   1.110       .  S
C182        H188   1.111       .  S
H183       C1571   1.111       .  S
H184       C1571   1.110       .  S
C189        C190   1.402       .  A
C189        C194   1.405       .  A
C189        H196   1.084       .  S
C190        C191   1.420       .  A
C191       C1236   1.399   1_545  A
C191        C894   1.506   1_545  S
C192       C1235   1.399   1_554  A
C192       C1237   1.394       .  A
C192        H197   1.085       .  S
C193        C194   1.413       .  A
C193       C1236   1.394   1_545  A
C193       C1146   1.463       .  S
C194        C195   1.507       .  S
C195        H199   1.111       .  S
C195        H200   1.111       .  S
C195        H201   1.108       .  S
C198        C887   1.506       .  S
C198        H203   1.111       .  S
C198        H898   1.106       .  S
C198        H552   1.111       .  S
H202        C894   1.106       .  S
H204        C546   1.111   1_554  S
C205        C206   1.399       .  A
C205        C558   1.392   1_545  A
C205        H212   1.080   1_545  S
C206        C207   1.414       .  A
C207        C208   1.413       .  A
C207        C214   1.505       .  S
C208        C209   1.408       .  A
C208        H213   1.084       .  S
C209        C558   1.418   1_545  A
C209        C452   1.481       .  S
C210        C553   1.392   1_565  A
C210        C557   1.418   1_565  A
C210        C907   1.514   1_556  S
C211        C906   1.514   1_554  S
C211        H215   1.111       .  S
C211        H217   1.109       .  S
C211        H912   1.111       .  S
C214        H218   1.110       .  S
C214        H219   1.109       .  S
C214        H220   1.111       .  S
H216        C907   1.111       .  S
C221        C222   1.400       .  A
C221        C226   1.403       .  A
C221        H228   1.078       .  S
C222        C223   1.418       .  A
C223        C224   1.403       .  A
C223        C230   1.510       .  S
C224        C225   1.402       .  A
C224        H229   1.084       .  S
C225        C226   1.419       .  A
C226        C227   1.508       .  S
C227        H231   1.111       .  S
C227        H232   1.108       .  S
C227        H233   1.110       .  S
C230        H234   1.111       .  S
C230        H235   1.108       .  S
C230        H236   1.111       .  S
C237        C238   1.396       .  A
C237        C242   1.402       .  A
C237        H244   1.085       .  S
C238        C239   1.410       .  A
C239        C240   1.404       .  A
C239        C942   1.506       .  S
C240        C241   1.405       .  A
C240        H941   1.085       .  S
C241        C242   1.418       .  A
C242        C243   1.500       .  S
C243        H247   1.107       .  S
C243        H248   1.106       .  S
C243        H249   1.109       .  S
H245        C936   1.085   1_545  S
C246        C935   1.506   1_545  S
C246        H250   1.111       .  S
C246        H251   1.110       .  S
C246        H252   1.111       .  S
C253        C254   1.405       .  A
C253        C258   1.408       .  A
C253        H260   1.084       .  S
C254        C255   1.420       .  A
C255        C952   1.407       .  A
C255        C262   1.509       .  S
C256        C257   1.402       .  A
C256        C951   1.407       .  A
C256        H261   1.084       .  S
C257        C954   1.417   1_545  A
C258        C953   1.417       .  A
C258        C955   1.508       .  S
C259        C954   1.508       .  S
C259        H264   1.108       .  S
C259        H959   1.111       .  S
C259        H961   1.110       .  S
C262        H266   1.110       .  S
C262        H267   1.107       .  S
C262        H268   1.111       .  S
H263        C955   1.111       .  S
H265        C955   1.110       .  S
C269        C270   1.412       .  A
C269        C274   1.389       .  A
C269        H276   1.084       .  S
C270        C271   1.423       .  A
C271        C272   1.414       .  A
C271        C278   1.506       .  S
C272        C273   1.404       .  A
C272        H277   1.084       .  S
C273        C274   1.409       .  A
C274        C275   1.513       .  S
C275        H279   1.110       .  S
C275        H280   1.111       .  S
C275        H281   1.106       .  S
C278        H282   1.110       .  S
C278        H283   1.111       .  S
C278        H284   1.111       .  S
C285        C286   1.402       .  A
C285        C290   1.391       .  A
C285        H292   1.083       .  S
C286        C287   1.431       .  A
C287        C288   1.415       .  A
C287        C294   1.508       .  S
C288        C289   1.402       .  A
C288        H293   1.084       .  S
C289        C290   1.422       .  A
C290        C291   1.511       .  S
C291        H295   1.111       .  S
C291        H296   1.110       .  S
C291        H297   1.097       .  S
C294        H298   1.110       .  S
C294        H299   1.107       .  S
C294        H300   1.111       .  S
C301        C650   1.411       .  A
C301        C654   1.412       .  A
C301        H308   1.083       .  S
C302        C303   1.416       .  A
C302        C649   1.411       .  A
C302        C353   1.497       .  S
C303        C304   1.394       .  A
C303        C310   1.512       .  S
C304        C305   1.411       .  A
C304        H309   1.083       .  S
C305        C306   1.418       .  A
C306        C649   1.412       .  A
C306       C2047   1.507   1_455  S
C307       C2046   1.507       .  S
C307        H311   1.111       .  S
C307        H312   1.111       .  S
C307        H313   1.099       .  S
C310        H314   1.107       .  S
C310        H315   1.110       .  S
C310        H316   1.111       .  S
C317        C322   1.409       .  A
C317        C666   1.409       .  A
C317        H324   1.084       .  S
C318        C319   1.423       .  A
C318        C665   1.409   1_554  A
C319        C320   1.399       .  A
C319        C326   1.506       .  S
C320        C321   1.395       .  A
C320        H325   1.085       .  S
C321        C670   1.410   1_554  A
C321        C349   1.477       .  S
C322        C669   1.410       .  A
C322        C323   1.505       .  S
C323        H327   1.110       .  S
C323        H328   1.110       .  S
C323        H329   1.110       .  S
C326        H330   1.109       .  S
C326        H331   1.108       .  S
C326        H332   1.111       .  S
C333        C334   1.408       .  A
C333        C338   1.411       .  A
C333        H340   1.084   1_554  S
C334        C335   1.418       .  A
C335        C336   1.403       .  A
C335        C342   1.510       .  S
C336        C337   1.403       .  A
C336        H341   1.085       .  S
C337        C338   1.415       .  A
C338        C339   1.506       .  S
C339        H343   1.111   1_554  S
C339        H344   1.108       .  S
C339        H345   1.110       .  S
C342        H346   1.111       .  S
C342        H347   1.108       .  S
C342        H348   1.111       .  S
C349        C354   1.402       .  A
C350        C351   1.407       .  A
C350        H355   1.083       .  S
C351        C352   1.403       .  A
C351        C682   1.494       .  S
C352        H356   1.083       .  S
C353        C354   1.403       .  A
C354        H357   1.083       .  S
C358        C359   1.403       .  A
C358        C363   1.406       .  A
C358        C621   1.473       .  S
C359        C360   1.402       .  A
C359        H364   1.076       .  S
C360        C361   1.415       .  A
C360        C634   1.507       .  S
C361        C362   1.401       .  A
C361        H365   1.083       .  S
C362        C363   1.403       .  A
C362        C685   1.491       .  S
C363        H366   1.082       .  S
C367        C368   1.410       .  A
C367        C372   1.403       .  A
C367        C573   1.488       .  S
C368        C369   1.410       .  A
C368        H373   1.083       .  S
C369        C370   1.406       .  A
C369        C602   1.494       .  S
C370        C371   1.402       .  A
C370        H374   1.082       .  S
C371        C372   1.394       .  A
C371        C586   1.474       .  S
C372        H375   1.084       .  S
C376        C377   1.407       .  A
C376        C381   1.403       .  A
C376        C554   1.486       .  S
C377        C378   1.410       .  A
C377        H382   1.083       .  S
C378        C379   1.408       .  A
C378        C605   1.490       .  S
C379        C380   1.404       .  A
C379        H383   1.083       .  S
C380        C381   1.395       .  A
C380        C538   1.483       .  S
C381        H384   1.084       .  S
C385        C386   1.404   1_655  A
C385        C390   1.402       .  A
C385        C493   1.479       .  S
C386        C387   1.406       .  A
C386        H391   1.080       .  S
C387        C388   1.417       .  A
C387        C506   1.510       .  S
C388        C389   1.402       .  A
C388        H392   1.081       .  S
C389        C390   1.399   1_455  A
C389       C1914   1.484   1_455  S
C390        H393   1.084       .  S
C394        C395   1.409       .  A
C394        C399   1.400       .  A
C394        C474   1.482       .  S
C395        C396   1.410       .  A
C395        H400   1.083       .  S
C396        C397   1.405       .  A
C396        C525   1.491       .  S
C397        C398   1.401       .  A
C397        H401   1.083       .  S
C398        C399   1.394       .  A
C398        C461   1.471       .  S
C399        H402   1.085       .  S
O403        C414   1.296       .  A
O403      Zr1831   2.461   1_455  S
O404        C415   1.296       .  A
O404       Zr438   2.466       .  S
O405        C416   1.298       .  A
O405      Zr1803   2.471   1_455  S
O406        C417   1.302       .  A
O406       Zr411   2.492       .  S
O407        C417   1.279       .  A
O407       Zr441   2.380       .  S
O408        C416   1.288       .  A
O408      Zr1136   2.416       .  S
O409        C415   1.287       .  A
O409       Zr411   2.411       .  S
O410        C414   1.289       .  A
O410      Zr1803   2.424   1_455  S
Zr411      O1797   2.471       .  S
Zr411      O1802   2.424       .  S
Zr411       O412   2.344       .  S
Zr411      O1805   2.352       .  S
Zr411       O421   2.332       .  S
Zr411       O419   2.345       .  S
O412       Zr438   2.345       .  S
O412       Zr441   2.339       .  S
O413      Zr1803   2.352   1_455  S
O413      Zr1831   2.350   1_455  S
O413      Zr1136   2.343       .  S
C414        C666   1.492       .  S
C415        C458   1.470       .  S
C416        C570   1.482       .  S
C417        C637   1.489       .  S
H418        O419   0.965       .  S
O419       Zr438   2.333       .  S
O419      Zr2528   2.329       .  S
H420        O421   0.965       .  S
O421       Zr439   2.343       .  S
O421       Zr441   2.339       .  S
O422        C445   1.296       .  A
O422      Zr1134   2.469   1_545  S
O423       C1142   1.297       .  A
O424       C1839   1.292   1_455  A
O424       Zr440   2.447       .  S
O425        C448   1.300       .  A
O425       Zr441   2.489       .  S
O426       Zr441   2.455       .  S
O427       C1146   1.294       .  A
O427       Zr440   2.454       .  S
O428       C1843   1.297       .  A
O428       Zr442   2.475       .  S
O429        C452   1.296       .  A
O429       Zr442   2.463       .  S
O430        C451   1.287       .  A
O430       Zr440   2.403       .  S
O431       C1148   1.285       .  A
O431       Zr441   2.404       .  S
O432        C447   1.288       .  A
O432      Zr1134   2.415   1_545  S
O433        C450   1.287       .  A
O433      Zr1831   2.412   1_455  S
O434        C449   1.291       .  A
O435        C448   1.284       .  A
O435       Zr438   2.397       .  S
O436        C445   1.287       .  A
O436       Zr442   2.400       .  S
O437        C446   1.286       .  A
Zr438      O1118   2.469       .  S
Zr438      O1128   2.415       .  S
Zr438      O1140   2.336       .  S
Zr438       O456   2.343       .  S
Zr439      O1795   2.461       .  S
Zr439      O1825   2.412       .  S
Zr439      O1805   2.350       .  S
Zr439       O443   2.347       .  S
Zr439      O1150   2.338       .  S
Zr440      O1104   2.416   1_545  S
Zr440      O1109   2.343   1_545  S
Zr440      O2507   2.329   1_445  S
Zr440      O1836   2.335   1_455  S
Zr440      O1846   2.328   1_455  S
Zr441       O443   2.341       .  S
Zr441       O456   2.326       .  S
Zr442      O1139   2.341   1_545  S
Zr442       O444   2.339       .  S
Zr442      O1152   2.337       .  S
Zr442       O454   2.329       .  S
O443      Zr1138   2.341       .  S
O444      Zr1134   2.336   1_545  S
O444      Zr1832   2.335       .  S
C445        C618   1.500       .  S
C446        C509   1.497       .  S
C446       O1119   1.297       .  A
C447        C490   1.482       .  S
C447       O1816   1.292       .  A
C448        C589   1.475       .  S
C449        C477   1.488       .  S
C450        C889   1.463       .  S
C450       O1123   1.294       .  A
C451        C653   1.501       .  S
C451       O1820   1.297   1_455  A
C452       O1127   1.285   1_545  A
H453       O1846   0.965   1_455  S
O454      Zr1135   2.338   1_545  S
O454      Zr1832   2.328       .  S
O454       H1845   0.965       .  S
H455       O1152   0.965       .  S
O456      Zr1138   2.337       .  S
O456       H1151   0.965       .  S
C457        C458   1.402       .  A
C457        C462   1.400       .  A
C457        H464   1.085       .  S
C458        C459   1.409       .  A
C459        C460   1.404       .  A
C459        C466   1.497       .  S
C460        C461   1.400       .  A
C460        H465   1.084       .  S
C461        C462   1.411       .  A
C462        C463   1.507       .  S
C463       H1859   1.111       .  S
C463        H468   1.109       .  S
C463        H469   1.110       .  S
C466        H470   1.109       .  S
C466        H471   1.110       .  S
C466        H472   1.111       .  S
H467       C1855   1.111   1_455  S
C473        C474   1.406       .  A
C473        C478   1.408       .  A
C473        H480   1.084       .  S
C474        C475   1.411       .  A
C475        C476   1.399       .  A
C475        C482   1.509       .  S
C476        C477   1.408       .  A
C476        H481   1.084       .  S
C477        C478   1.416       .  A
C478        C479   1.507       .  S
C479        H483   1.111       .  S
C479        H484   1.111       .  S
C479        H485   1.110       .  S
C482        H486   1.111       .  S
C482        H487   1.108       .  S
C482       H1880   1.111       .  S
H488       C1874   1.111   1_455  S
C489        C490   1.406       .  A
C489        C494   1.397       .  A
C489        H496   1.085       .  S
C490       C1883   1.416       .  A
C491       C1882   1.416   1_455  A
C491        C492   1.406       .  A
C491        C498   1.507       .  S
C492        C493   1.404   1_455  A
C492        H497   1.084       .  S
C493       C1886   1.413       .  A
C494       C1885   1.413       .  A
C494        C495   1.509       .  S
C495        H499   1.111       .  S
C495        H500   1.108       .  S
C495       H1893   1.110       .  S
C498       H1894   1.111       .  S
C498        H503   1.109       .  S
C498        H504   1.111       .  S
H501       C1887   1.110       .  S
H502       C1890   1.111       .  S
C505        C506   1.402       .  A
C505       C1902   1.390       .  A
C505        H512   1.078   1_455  S
C506        C507   1.427       .  A
C507       C1900   1.415       .  A
C507        C514   1.506       .  S
C508       C1899   1.415       .  A
C508        C509   1.406       .  A
C508        H513   1.084       .  S
C509        C510   1.420       .  A
C510       C1897   1.390       .  A
C510        C511   1.505       .  S
C511        H515   1.112       .  S
C511       H1908   1.110       .  S
C511        H517   1.109       .  S
C514        H518   1.109       .  S
C514        H519   1.110       .  S
C514        H520   1.111       .  S
H516       C1903   1.110   1_455  S
C521       C1914   1.400   1_455  A
C521       C1918   1.408   1_455  A
C521        H528   1.084       .  S
C522       C1913   1.400       .  A
C522        C523   1.415       .  A
C522       C1781   1.484       .  S
C523        C524   1.405       .  A
C523        C530   1.508       .  S
C524        C525   1.403       .  A
C524        H529   1.084       .  S
C525        C526   1.421       .  A
C526       C1913   1.408       .  A
C526        C527   1.508       .  S
C527       H1923   1.111       .  S
C527       H1924   1.110       .  S
C527        H533   1.107       .  S
C530        H534   1.109       .  S
C530        H535   1.110       .  S
C530        H536   1.111       .  S
H531       C1919   1.111       .  S
H532       C1919   1.110       .  S
C537        C538   1.402       .  A
C537        C542   1.405       .  A
C537        H544   1.084       .  S
C538        C539   1.420       .  A
C539        C888   1.399   1_546  A
C539       C1242   1.506   1_545  S
C540        C887   1.399       .  A
C540        C889   1.394       .  A
C540        H545   1.085       .  S
C541        C888   1.394   1_545  A
C541        C542   1.413   1_554  A
C541        C798   1.463       .  S
C542        C543   1.507       .  S
C543        H547   1.111       .  S
C543        H548   1.111       .  S
C543        H549   1.108       .  S
C546       C1235   1.506       .  S
C546       H1246   1.106   1_556  S
C546        H551   1.111       .  S
H550       C1242   1.106   1_554  S
C553        C554   1.399       .  A
C553        H560   1.080   1_545  S
C554        C555   1.414       .  A
C555        C556   1.413       .  A
C555        C562   1.505       .  S
C556        C557   1.408       .  A
C556        H561   1.084       .  S
C558       C1255   1.514       .  S
C559       C1254   1.514       .  S
C559        H563   1.111       .  S
C559       H1260   1.111       .  S
C559        H565   1.109       .  S
C562        H566   1.110       .  S
C562        H567   1.109       .  S
C562        H568   1.111       .  S
H564       C1255   1.111       .  S
C569        C570   1.400       .  A
C569        C574   1.403       .  A
C569        H576   1.078       .  S
C570        C571   1.418       .  A
C571        C572   1.403       .  A
C571        C578   1.510       .  S
C572        C573   1.402       .  A
C572        H577   1.084       .  S
C573        C574   1.419       .  A
C574        C575   1.508       .  S
C575        H579   1.111       .  S
C575        H580   1.108       .  S
C575        H581   1.110       .  S
C578        H582   1.111       .  S
C578        H583   1.108       .  S
C578        H584   1.111       .  S
C585        C586   1.396       .  A
C585        C590   1.402       .  A
C585        H592   1.085       .  S
C586        C587   1.410       .  A
C587        C588   1.404       .  A
C587       C1290   1.506       .  S
C588        C589   1.405       .  A
C588       H1289   1.085       .  S
C589        C590   1.418       .  A
C590        C591   1.500       .  S
C591        H595   1.107       .  S
C591        H596   1.106       .  S
C591        H597   1.109       .  S
H593       C1284   1.085   1_545  S
C594       C1283   1.506   1_545  S
C594        H598   1.111       .  S
C594        H599   1.110       .  S
C594        H600   1.111       .  S
C601        C602   1.405       .  A
C601        C606   1.408       .  A
C601        H608   1.084       .  S
C602        C603   1.420       .  A
C603       C1300   1.407       .  A
C603        C610   1.509       .  S
C604       C1299   1.407       .  A
C604        C605   1.402       .  A
C604        H609   1.084       .  S
C605       C1302   1.417   1_545  A
C606       C1301   1.417       .  A
C606       C1303   1.508       .  S
C607       C1302   1.508       .  S
C607       H1307   1.111       .  S
C607        H612   1.108       .  S
C607       H1309   1.110       .  S
C610        H614   1.110       .  S
C610        H615   1.107       .  S
C610        H616   1.111       .  S
H611       C1303   1.111       .  S
H613       C1303   1.110       .  S
C617        C618   1.412       .  A
C617        C622   1.389       .  A
C617        H624   1.084       .  S
C618        C619   1.423       .  A
C619        C620   1.414       .  A
C619        C626   1.506       .  S
C620        C621   1.404       .  A
C620        H625   1.084       .  S
C621        C622   1.409       .  A
C622        C623   1.513       .  S
C623        H627   1.110       .  S
C623        H628   1.111       .  S
C623        H629   1.106       .  S
C626        H630   1.110       .  S
C626        H631   1.111       .  S
C626        H632   1.111       .  S
C633        C634   1.402       .  A
C633        C638   1.391       .  A
C633        H640   1.083       .  S
C634        C635   1.431       .  A
C635        C636   1.415       .  A
C635        C642   1.508       .  S
C636        C637   1.402       .  A
C636        H641   1.084       .  S
C637        C638   1.422       .  A
C638        C639   1.511       .  S
C639        H643   1.111       .  S
C639        H644   1.110       .  S
C639        H645   1.097       .  S
C642        H646   1.110       .  S
C642        H647   1.107       .  S
C642        H648   1.111       .  S
C649        H656   1.083       .  S
C650        C651   1.416       .  A
C651        C652   1.394       .  A
C651        C658   1.512       .  S
C652        C653   1.411       .  A
C652        H657   1.083       .  S
C653        C654   1.418       .  A
C654       C1699   1.507   1_455  S
C655       C1698   1.507       .  S
C655        H659   1.111       .  S
C655        H660   1.111       .  S
C655        H661   1.099       .  S
C658        H662   1.107       .  S
C658        H663   1.110       .  S
C658        H664   1.111       .  S
C665        C670   1.409       .  A
C665        H672   1.084       .  S
C666        C667   1.423       .  A
C667        C668   1.399       .  A
C667        C674   1.506       .  S
C668        C669   1.395       .  A
C668        H673   1.085       .  S
C670        C671   1.505       .  S
C671        H675   1.110       .  S
C671        H676   1.110       .  S
C671        H677   1.110       .  S
C674        H678   1.109       .  S
C674        H679   1.108       .  S
C674        H680   1.111       .  S
C681        C682   1.408       .  A
C681        C686   1.411       .  A
C681        H688   1.084       .  S
C682        C683   1.418       .  A
C683        C684   1.403       .  A
C683        C690   1.510       .  S
C684        C685   1.403       .  A
C684        H689   1.085       .  S
C685        C686   1.415       .  A
C686        C687   1.506       .  S
C687        H691   1.111       .  S
C687        H692   1.108       .  S
C687        H693   1.110       .  S
C690        H694   1.111       .  S
C690        H695   1.108       .  S
C690        H696   1.111       .  S
C697       C1046   1.405       .  A
C697        C702   1.402       .  A
C697       C1365   1.477       .  S
C698       C1045   1.405       .  A
C698        C699   1.407       .  A
C698        H703   1.083       .  S
C699        C700   1.403       .  A
C699       C1030   1.494       .  S
C700       C1049   1.410       .  A
C700        H704   1.083       .  S
C701       C1048   1.410       .  A
C701        C702   1.403       .  A
C701       C1346   1.497       .  S
C702        H705   1.083       .  S
C706        C707   1.403       .  A
C706        C711   1.406       .  A
C706        C969   1.473       .  S
C707        C708   1.402       .  A
C707        H712   1.076       .  S
C708        C709   1.415       .  A
C708        C982   1.507       .  S
C709        C710   1.401       .  A
C709        H713   1.083       .  S
C710        C711   1.403       .  A
C710       C1033   1.491       .  S
C711        H714   1.082       .  S
C715        C716   1.410       .  A
C715        C720   1.403       .  A
C715        C921   1.488       .  S
C716        C717   1.410       .  A
C716        H721   1.083       .  S
C717        C718   1.406       .  A
C717        C950   1.494       .  S
C718        C719   1.402       .  A
C718        H722   1.082       .  S
C719        C720   1.394       .  A
C719        C934   1.474       .  S
C720        H723   1.084       .  S
C724        C725   1.407       .  A
C724        C729   1.403       .  A
C724        C902   1.486       .  S
C725        C726   1.410       .  A
C725        H730   1.083       .  S
C726        C727   1.408       .  A
C726        C953   1.490       .  S
C727        C728   1.404       .  A
C727        H731   1.083       .  S
C728        C729   1.395       .  A
C728        C886   1.483       .  S
C729        H732   1.084       .  S
C733        C734   1.404   1_655  A
C733        C738   1.402       .  A
C733        C841   1.479       .  S
C734        C735   1.406       .  A
C734        H739   1.080       .  S
C735        C736   1.417       .  A
C735        C854   1.510       .  S
C736        C737   1.402       .  A
C736        H740   1.081       .  S
C737        C738   1.399   1_455  A
C737       C2262   1.484   1_455  S
C738        H741   1.084       .  S
C742        C743   1.409       .  A
C742        C747   1.400       .  A
C742        C822   1.482       .  S
C743        C744   1.410       .  A
C743        H748   1.083       .  S
C744        C745   1.405       .  A
C744        C873   1.491       .  S
C745        C746   1.401       .  A
C745        H749   1.083       .  S
C746        C747   1.394       .  A
C746        C809   1.471       .  S
C747        H750   1.085       .  S
O751        C762   1.296       .  A
O751      Zr2179   2.461   1_455  S
O752        C763   1.296       .  A
O752       Zr786   2.466       .  S
O753        C764   1.298       .  A
O753      Zr2151   2.471   1_455  S
O754        C765   1.302       .  A
O754       Zr759   2.492       .  S
O755        C765   1.279       .  A
O755       Zr789   2.380       .  S
O756        C764   1.288       .  A
O757        C763   1.287       .  A
O757       Zr759   2.411       .  S
O758        C762   1.289       .  A
O758      Zr2151   2.424   1_455  S
Zr759      O2145   2.471       .  S
Zr759      O2150   2.424       .  S
Zr759       O760   2.344       .  S
Zr759      O2153   2.352       .  S
Zr759       O769   2.332       .  S
Zr759       O767   2.345       .  S
O760       Zr786   2.345       .  S
O760       Zr789   2.339       .  S
O761      Zr2151   2.352   1_455  S
O761      Zr2179   2.350   1_455  S
C762       C1014   1.492       .  S
C763        C806   1.470       .  S
C764        C918   1.482       .  S
C765        C985   1.489       .  S
H766        O767   0.965       .  S
O767       Zr786   2.333       .  S
O767      Zr1484   2.329   1_565  S
H768        O769   0.965       .  S
O769       Zr787   2.343       .  S
O769       Zr789   2.339       .  S
O770        C793   1.296       .  A
O771      Zr1135   2.471   1_545  S
O772       C2187   1.292   1_455  A
O772       Zr788   2.447       .  S
O773        C796   1.300       .  A
O773       Zr789   2.489       .  S
O774       C1145   1.294       .  A
O774       Zr789   2.455   1_556  S
O775       Zr788   2.454       .  S
O776       C2191   1.297       .  A
O776       Zr790   2.475       .  S
O777        C800   1.296       .  A
O777       Zr790   2.463   1_556  S
O778        C799   1.287       .  A
O778       Zr788   2.403       .  S
O779       Zr789   2.404       .  S
O780        C795   1.288       .  A
O781        C798   1.287   1_565  A
O781      Zr2179   2.412   1_455  S
O782        C797   1.291       .  A
O782      Zr1135   2.422       .  S
O783        C796   1.284       .  A
O783       Zr786   2.397       .  S
O784        C793   1.287       .  A
O784       Zr790   2.400       .  S
O785        C794   1.286       .  A
O785      Zr1138   2.412       .  S
Zr786       O804   2.343   1_565  S
Zr787      O2143   2.461       .  S
Zr787      O1119   2.471   1_564  S
Zr787      O2173   2.412       .  S
Zr787      O1130   2.422   1_554  S
Zr787      O2153   2.350       .  S
Zr787       O791   2.347       .  S
Zr788      O1463   2.329   1_455  S
Zr788      O2184   2.335   1_455  S
Zr788      O2194   2.328   1_455  S
Zr789       O791   2.341       .  S
Zr789       O804   2.326   1_565  S
Zr790      O1133   2.412   1_554  S
Zr790       O792   2.339       .  S
Zr790       O802   2.329       .  S
O792      Zr2180   2.335       .  S
C793        C966   1.500       .  S
C794        C857   1.497       .  S
C795        C838   1.482       .  S
C795       O2164   1.292       .  A
C796        C937   1.475       .  S
C797        C825   1.488       .  S
C797       O1122   1.294       .  A
C799       C1001   1.501       .  S
C799       O2168   1.297   1_455  A
C800       C1253   1.481       .  S
H801       O2194   0.965   1_455  S
O802      Zr2180   2.328       .  S
O802       H2193   0.965       .  S
C805        C806   1.402       .  A
C805        C810   1.400       .  A
C805        H812   1.085       .  S
C806        C807   1.409       .  A
C807        C808   1.404       .  A
C807        C814   1.497       .  S
C808        C809   1.400       .  A
C808        H813   1.084       .  S
C809        C810   1.411       .  A
C810        C811   1.507       .  S
C811       H2207   1.111       .  S
C811        H816   1.109       .  S
C811        H817   1.110       .  S
C814        H818   1.109       .  S
C814        H819   1.110       .  S
C814        H820   1.111       .  S
H815       C2203   1.111   1_455  S
C821        C822   1.406       .  A
C821        C826   1.408       .  A
C821        H828   1.084       .  S
C822        C823   1.411       .  A
C823        C824   1.399       .  A
C823        C830   1.509       .  S
C824        C825   1.408       .  A
C824        H829   1.084       .  S
C825        C826   1.416       .  A
C826        C827   1.507       .  S
C827        H831   1.111       .  S
C827        H832   1.111       .  S
C827        H833   1.110       .  S
C830        H834   1.111       .  S
C830        H835   1.108       .  S
C830       H2228   1.111       .  S
H836       C2222   1.111   1_455  S
C837        C838   1.406       .  A
C837        C842   1.397       .  A
C837        H844   1.085       .  S
C838       C2231   1.416       .  A
C839       C2230   1.416   1_455  A
C839        C840   1.406       .  A
C839        C846   1.507       .  S
C840        C841   1.404   1_455  A
C840        H845   1.084       .  S
C841       C2234   1.413       .  A
C842       C2233   1.413       .  A
C842        C843   1.509       .  S
C843        H847   1.111       .  S
C843        H848   1.108       .  S
C843       H2241   1.110       .  S
C846       H2242   1.111       .  S
C846        H851   1.109       .  S
C846        H852   1.111       .  S
H849       C2235   1.110       .  S
H850       C2238   1.111       .  S
C853        C854   1.402       .  A
C853       C2250   1.390       .  A
C853        H860   1.078   1_455  S
C854        C855   1.427       .  A
C855       C2248   1.415       .  A
C855        C862   1.506       .  S
C856       C2247   1.415       .  A
C856        C857   1.406       .  A
C856        H861   1.084       .  S
C857        C858   1.420       .  A
C858       C2245   1.390       .  A
C858        C859   1.505       .  S
C859        H863   1.112       .  S
C859       H2256   1.110       .  S
C859        H865   1.109       .  S
C862        H866   1.109       .  S
C862        H867   1.110       .  S
C862        H868   1.111       .  S
H864       C2251   1.110   1_455  S
C869       C2262   1.400   1_455  A
C869       C2266   1.408   1_455  A
C869        H876   1.084       .  S
C870       C2261   1.400       .  A
C870        C871   1.415       .  A
C870       C2129   1.484       .  S
C871        C872   1.405       .  A
C871        C878   1.508       .  S
C872        C873   1.403       .  A
C872        H877   1.084       .  S
C873        C874   1.421       .  A
C874       C2261   1.408       .  A
C874        C875   1.508       .  S
C875       H2271   1.111       .  S
C875       H2272   1.110       .  S
C875        H881   1.107       .  S
C878        H882   1.109       .  S
C878        H883   1.110       .  S
C878        H884   1.111       .  S
H879       C2267   1.111       .  S
H880       C2267   1.110       .  S
C885        C886   1.402       .  A
C885        C890   1.405       .  A
C885        H892   1.084       .  S
C886        C887   1.420       .  A
C888        H893   1.085       .  S
C889        C890   1.413       .  A
C890        C891   1.507       .  S
C891        H895   1.111       .  S
C891        H896   1.111       .  S
C891        H897   1.108       .  S
C894        H899   1.111       .  S
C894       H1248   1.111       .  S
H900       C1242   1.111   1_554  S
C901        C902   1.399       .  A
C901       C1254   1.392       .  A
C901        H908   1.080       .  S
C902        C903   1.414       .  A
C903        C904   1.413       .  A
C903        C910   1.505       .  S
C904        C905   1.408       .  A
C904        H909   1.084       .  S
C905       C1254   1.418       .  A
C905       C1148   1.481       .  S
C906       C1249   1.392       .  A
C906       C1253   1.418       .  A
C907        H911   1.111       .  S
C907        H913   1.109       .  S
C910        H914   1.110       .  S
C910        H915   1.109       .  S
C910        H916   1.111       .  S
C917        C918   1.400       .  A
C917        C922   1.403       .  A
C917        H924   1.078       .  S
C918        C919   1.418       .  A
C919        C920   1.403       .  A
C919        C926   1.510   1_565  S
C920        C921   1.402       .  A
C920        H925   1.084       .  S
C921        C922   1.419       .  A
C922        C923   1.508       .  S
C923        H927   1.111       .  S
C923        H928   1.108       .  S
C923        H929   1.110       .  S
C926        H930   1.111   1_545  S
C926        H931   1.108       .  S
C926        H932   1.111       .  S
C933        C934   1.396       .  A
C933        C938   1.402       .  A
C933        H940   1.085       .  S
C934        C935   1.410       .  A
C935        C936   1.404       .  A
C936        C937   1.405       .  A
C937        C938   1.418       .  A
C938        C939   1.500       .  S
C939        H943   1.107       .  S
C939        H944   1.106       .  S
C939        H945   1.109       .  S
C942        H946   1.111       .  S
C942        H947   1.110       .  S
C942        H948   1.111       .  S
C949        C950   1.405       .  A
C949        C954   1.408       .  A
C949        H956   1.084       .  S
C950        C951   1.420   1_565  A
C951        C958   1.509       .  S
C952        C953   1.402       .  A
C952        H957   1.084       .  S
C955        H960   1.108       .  S
C958        H962   1.110       .  S
C958        H963   1.107       .  S
C958        H964   1.111       .  S
C965        C966   1.412       .  A
C965        C970   1.389       .  A
C965        H972   1.084       .  S
C966        C967   1.423       .  A
C967        C968   1.414       .  A
C967        C974   1.506       .  S
C968        C969   1.404       .  A
C968        H973   1.084       .  S
C969        C970   1.409       .  A
C970        C971   1.513       .  S
C971        H975   1.110       .  S
C971        H976   1.111       .  S
C971        H977   1.106       .  S
C974        H978   1.110       .  S
C974        H979   1.111       .  S
C974        H980   1.111       .  S
C981        C982   1.402       .  A
C981        C986   1.391       .  A
C981        H988   1.083       .  S
C982        C983   1.431       .  A
C983        C984   1.415       .  A
C983        C990   1.508       .  S
C984        C985   1.402       .  A
C984        H989   1.084       .  S
C985        C986   1.422       .  A
C986        C987   1.511       .  S
C987        H991   1.111       .  S
C987        H992   1.110       .  S
C987        H993   1.097       .  S
C990        H994   1.110       .  S
C990        H995   1.107       .  S
C990        H996   1.111       .  S
C997       C1346   1.411       .  A
C997       C1350   1.412       .  A
C997       H1004   1.083       .  S
C998       C1345   1.411       .  A
C998        C999   1.416       .  A
C998       C1049   1.497       .  S
C999       C1000   1.394       .  A
C999       C1006   1.512       .  S
C1000      C1001   1.411       .  A
C1000      H1005   1.083       .  S
C1001      C1002   1.418       .  A
C1002      C1345   1.412       .  A
C1002      C2743   1.507   1_455  S
C1003      C2742   1.507       .  S
C1003      H1007   1.111       .  S
C1003      H1008   1.111       .  S
C1003      H1009   1.099       .  S
C1006      H1010   1.107       .  S
C1006      H1011   1.110       .  S
C1006      H1012   1.111       .  S
C1013      C1362   1.409       .  A
C1013      C1018   1.409       .  A
C1013      H1020   1.084       .  S
C1014      C1361   1.409   1_554  A
C1014      C1015   1.423       .  A
C1015      C1016   1.399       .  A
C1015      C1022   1.506       .  S
C1016      C1017   1.395       .  A
C1016      H1021   1.085       .  S
C1017      C1366   1.410   1_554  A
C1017      C1045   1.477       .  S
C1018      C1365   1.410       .  A
C1018      C1019   1.505       .  S
C1019      H1023   1.110       .  S
C1019      H1024   1.110       .  S
C1019      H1025   1.110       .  S
C1022      H1026   1.109       .  S
C1022      H1027   1.108       .  S
C1022      H1028   1.111       .  S
C1029      C1030   1.408       .  A
C1029      C1034   1.411       .  A
C1029      H1036   1.084   1_554  S
C1030      C1031   1.418       .  A
C1031      C1032   1.403       .  A
C1031      C1038   1.510       .  S
C1032      C1033   1.403       .  A
C1032      H1037   1.085       .  S
C1033      C1034   1.415       .  A
C1034      C1035   1.506       .  S
C1035      H1039   1.111   1_554  S
C1035      H1040   1.108       .  S
C1035      H1041   1.110       .  S
C1038      H1042   1.111       .  S
C1038      H1043   1.108       .  S
C1038      H1044   1.111       .  S
C1045      C1050   1.402       .  A
C1046      C1047   1.407       .  A
C1046      H1051   1.083       .  S
C1047      C1048   1.403       .  A
C1047      C1378   1.494       .  S
C1048      H1052   1.083       .  S
C1049      C1050   1.403       .  A
C1050      H1053   1.083       .  S
C1054      C1055   1.403       .  A
C1054      C1059   1.406       .  A
C1054      C1317   1.473       .  S
C1055      C1056   1.402       .  A
C1055      H1060   1.076       .  S
C1056      C1057   1.415       .  A
C1056      C1330   1.507       .  S
C1057      C1058   1.401       .  A
C1057      H1061   1.083       .  S
C1058      C1059   1.403       .  A
C1058      C1381   1.491       .  S
C1059      H1062   1.082       .  S
C1063      C1064   1.410       .  A
C1063      C1068   1.403       .  A
C1063      C1269   1.488       .  S
C1064      C1065   1.410       .  A
C1064      H1069   1.083       .  S
C1065      C1066   1.406       .  A
C1065      C1298   1.494       .  S
C1066      C1067   1.402       .  A
C1066      H1070   1.082       .  S
C1067      C1068   1.394       .  A
C1067      C1282   1.474       .  S
C1068      H1071   1.084       .  S
C1072      C1073   1.407       .  A
C1072      C1077   1.403       .  A
C1072      C1250   1.486       .  S
C1073      C1074   1.410       .  A
C1073      H1078   1.083       .  S
C1074      C1075   1.408       .  A
C1074      C1301   1.490       .  S
C1075      C1076   1.404       .  A
C1075      H1079   1.083       .  S
C1076      C1077   1.395       .  A
C1076      C1234   1.483       .  S
C1077      H1080   1.084       .  S
C1081      C1082   1.404   1_655  A
C1081      C1086   1.402       .  A
C1081      C1189   1.479       .  S
C1082      C1083   1.406       .  A
C1082      H1087   1.080       .  S
C1083      C1084   1.417       .  A
C1083      C1202   1.510       .  S
C1084      C1085   1.402       .  A
C1084      H1088   1.081       .  S
C1085      C1086   1.399   1_455  A
C1085      C2610   1.484   1_455  S
C1086      H1089   1.084       .  S
C1090      C1091   1.409       .  A
C1090      C1095   1.400       .  A
C1090      C1170   1.482       .  S
C1091      C1092   1.410       .  A
C1091      H1096   1.083       .  S
C1092      C1093   1.405       .  A
C1092      C1221   1.491       .  S
C1093      C1094   1.401       .  A
C1093      H1097   1.083       .  S
C1094      C1095   1.394       .  A
C1094      C1157   1.471       .  S
C1095      H1098   1.085       .  S
O1099      C1110   1.296       .  A
O1099     Zr2527   2.461   1_455  S
O1100      C1111   1.296       .  A
O1100     Zr1134   2.466       .  S
O1101      C1112   1.298       .  A
O1101     Zr2499   2.471   1_455  S
O1102      C1113   1.302       .  A
O1102     Zr1107   2.492       .  S
O1103      C1113   1.279       .  A
O1103     Zr1137   2.380       .  S
O1104      C1112   1.288       .  A
O1105      C1111   1.287       .  A
O1105     Zr1107   2.411       .  S
O1106      C1110   1.289       .  A
O1106     Zr2499   2.424   1_455  S
Zr1107     O2493   2.471       .  S
Zr1107     O2498   2.424       .  S
Zr1107     O1108   2.344       .  S
Zr1107     O2501   2.352       .  S
Zr1107     O1117   2.332       .  S
Zr1107     O1115   2.345       .  S
O1108     Zr1134   2.345       .  S
O1108     Zr1137   2.339       .  S
O1109     Zr2499   2.352   1_455  S
O1109     Zr2527   2.350   1_455  S
C1110      C1362   1.492       .  S
C1111      C1154   1.470       .  S
C1112      C1266   1.482       .  S
C1113      C1333   1.489       .  S
H1114      O1115   0.965       .  S
O1115     Zr1134   2.333       .  S
O1115     Zr1832   2.329   1_565  S
H1116      O1117   0.965       .  S
O1117     Zr1135   2.343       .  S
O1117     Zr1137   2.339       .  S
O1118      C1141   1.296       .  A
O1120      C2535   1.292   1_455  A
O1120     Zr1136   2.447       .  S
O1121      C1144   1.300       .  A
O1121     Zr1137   2.489       .  S
O1122     Zr1137   2.455       .  S
O1123     Zr1136   2.454       .  S
O1124      C2539   1.297       .  A
O1124     Zr1138   2.475       .  S
O1125      C1148   1.296       .  A
O1125     Zr1138   2.463       .  S
O1126      C1147   1.287       .  A
O1126     Zr1136   2.403       .  S
O1127     Zr1137   2.404       .  S
O1128      C1143   1.288       .  A
O1129      C1146   1.287   1_565  A
O1129     Zr2527   2.412   1_455  S
O1130      C1145   1.291       .  A
O1131      C1144   1.284       .  A
O1131     Zr1134   2.397       .  S
O1132      C1141   1.287       .  A
O1132     Zr1138   2.400       .  S
O1133      C1142   1.286       .  A
Zr1134     O1152   2.343   1_565  S
Zr1135     O2491   2.461       .  S
Zr1135     O2521   2.412       .  S
Zr1135     O2501   2.350       .  S
Zr1135     O1139   2.347       .  S
Zr1136     O1811   2.329   1_455  S
Zr1136     O2532   2.335   1_455  S
Zr1136     O2542   2.328   1_455  S
Zr1137     O1139   2.341       .  S
Zr1137     O1152   2.326   1_565  S
Zr1138     O1140   2.339       .  S
Zr1138     O1150   2.329       .  S
O1140     Zr2528   2.335       .  S
C1141      C1314   1.500       .  S
C1142      C1205   1.497       .  S
C1143      C1186   1.482       .  S
C1143      O2512   1.292       .  A
C1144      C1285   1.475       .  S
C1145      C1173   1.488       .  S
C1147      C1349   1.501       .  S
C1147      O2516   1.297   1_455  A
H1149      O2542   0.965   1_455  S
O1150     Zr2528   2.328       .  S
O1150      H2541   0.965       .  S
C1153      C1154   1.402       .  A
C1153      C1158   1.400       .  A
C1153      H1160   1.085       .  S
C1154      C1155   1.409       .  A
C1155      C1156   1.404       .  A
C1155      C1162   1.497       .  S
C1156      C1157   1.400       .  A
C1156      H1161   1.084       .  S
C1157      C1158   1.411       .  A
C1158      C1159   1.507       .  S
C1159      H2555   1.111       .  S
C1159      H1164   1.109       .  S
C1159      H1165   1.110       .  S
C1162      H1166   1.109       .  S
C1162      H1167   1.110       .  S
C1162      H1168   1.111       .  S
H1163      C2551   1.111   1_455  S
C1169      C1170   1.406       .  A
C1169      C1174   1.408       .  A
C1169      H1176   1.084       .  S
C1170      C1171   1.411       .  A
C1171      C1172   1.399       .  A
C1171      C1178   1.509       .  S
C1172      C1173   1.408       .  A
C1172      H1177   1.084       .  S
C1173      C1174   1.416       .  A
C1174      C1175   1.507       .  S
C1175      H1179   1.111       .  S
C1175      H1180   1.111       .  S
C1175      H1181   1.110       .  S
C1178      H1182   1.111       .  S
C1178      H1183   1.108       .  S
C1178      H2576   1.111       .  S
H1184      C2570   1.111   1_455  S
C1185      C1186   1.406       .  A
C1185      C1190   1.397       .  A
C1185      H1192   1.085       .  S
C1186      C2579   1.416       .  A
C1187      C2578   1.416   1_455  A
C1187      C1188   1.406       .  A
C1187      C1194   1.507       .  S
C1188      C1189   1.404   1_455  A
C1188      H1193   1.084       .  S
C1189      C2582   1.413       .  A
C1190      C2581   1.413       .  A
C1190      C1191   1.509       .  S
C1191      H1195   1.111       .  S
C1191      H1196   1.108       .  S
C1191      H2589   1.110       .  S
C1194      H2590   1.111       .  S
C1194      H1199   1.109       .  S
C1194      H1200   1.111       .  S
H1197      C2583   1.110       .  S
H1198      C2586   1.111       .  S
C1201      C1202   1.402       .  A
C1201      C2598   1.390       .  A
C1201      H1208   1.078   1_455  S
C1202      C1203   1.427       .  A
C1203      C2596   1.415       .  A
C1203      C1210   1.506       .  S
C1204      C2595   1.415       .  A
C1204      C1205   1.406       .  A
C1204      H1209   1.084       .  S
C1205      C1206   1.420       .  A
C1206      C2593   1.390       .  A
C1206      C1207   1.505       .  S
C1207      H1211   1.112       .  S
C1207      H2604   1.110       .  S
C1207      H1213   1.109       .  S
C1210      H1214   1.109       .  S
C1210      H1215   1.110       .  S
C1210      H1216   1.111       .  S
H1212      C2599   1.110   1_455  S
C1217      C2610   1.400   1_455  A
C1217      C2614   1.408   1_455  A
C1217      H1224   1.084       .  S
C1218      C2609   1.400       .  A
C1218      C1219   1.415       .  A
C1218      C2477   1.484       .  S
C1219      C1220   1.405       .  A
C1219      C1226   1.508       .  S
C1220      C1221   1.403       .  A
C1220      H1225   1.084       .  S
C1221      C1222   1.421       .  A
C1222      C2609   1.408       .  A
C1222      C1223   1.508       .  S
C1223      H2619   1.111       .  S
C1223      H2620   1.110       .  S
C1223      H1229   1.107       .  S
C1226      H1230   1.109       .  S
C1226      H1231   1.110       .  S
C1226      H1232   1.111       .  S
H1227      C2615   1.111       .  S
H1228      C2615   1.110       .  S
C1233      C1234   1.402       .  A
C1233      C1238   1.405       .  A
C1233      H1240   1.084       .  S
C1234      C1235   1.420       .  A
C1236      H1241   1.085       .  S
C1237      C1238   1.413   1_554  A
C1238      C1239   1.507       .  S
C1239      H1243   1.111       .  S
C1239      H1244   1.111       .  S
C1239      H1245   1.108       .  S
C1242      H1247   1.111       .  S
C1249      C1250   1.399       .  A
C1249      H1256   1.080       .  S
C1250      C1251   1.414       .  A
C1251      C1252   1.413       .  A
C1251      C1258   1.505       .  S
C1252      C1253   1.408       .  A
C1252      H1257   1.084       .  S
C1255      H1259   1.111       .  S
C1255      H1261   1.109       .  S
C1258      H1262   1.110       .  S
C1258      H1263   1.109       .  S
C1258      H1264   1.111       .  S
C1265      C1266   1.400       .  A
C1265      C1270   1.403       .  A
C1265      H1272   1.078       .  S
C1266      C1267   1.418       .  A
C1267      C1268   1.403       .  A
C1267      C1274   1.510   1_565  S
C1268      C1269   1.402       .  A
C1268      H1273   1.084       .  S
C1269      C1270   1.419       .  A
C1270      C1271   1.508       .  S
C1271      H1275   1.111       .  S
C1271      H1276   1.108       .  S
C1271      H1277   1.110       .  S
C1274      H1278   1.111   1_545  S
C1274      H1279   1.108       .  S
C1274      H1280   1.111       .  S
C1281      C1282   1.396       .  A
C1281      C1286   1.402       .  A
C1281      H1288   1.085       .  S
C1282      C1283   1.410       .  A
C1283      C1284   1.404       .  A
C1284      C1285   1.405       .  A
C1285      C1286   1.418       .  A
C1286      C1287   1.500       .  S
C1287      H1291   1.107       .  S
C1287      H1292   1.106       .  S
C1287      H1293   1.109       .  S
C1290      H1294   1.111       .  S
C1290      H1295   1.110       .  S
C1290      H1296   1.111       .  S
C1297      C1298   1.405       .  A
C1297      C1302   1.408       .  A
C1297      H1304   1.084       .  S
C1298      C1299   1.420   1_565  A
C1299      C1306   1.509       .  S
C1300      C1301   1.402       .  A
C1300      H1305   1.084       .  S
C1303      H1308   1.108       .  S
C1306      H1310   1.110       .  S
C1306      H1311   1.107       .  S
C1306      H1312   1.111       .  S
C1313      C1314   1.412       .  A
C1313      C1318   1.389       .  A
C1313      H1320   1.084       .  S
C1314      C1315   1.423       .  A
C1315      C1316   1.414       .  A
C1315      C1322   1.506       .  S
C1316      C1317   1.404       .  A
C1316      H1321   1.084       .  S
C1317      C1318   1.409       .  A
C1318      C1319   1.513       .  S
C1319      H1323   1.110       .  S
C1319      H1324   1.111       .  S
C1319      H1325   1.106       .  S
C1322      H1326   1.110       .  S
C1322      H1327   1.111       .  S
C1322      H1328   1.111       .  S
C1329      C1330   1.402       .  A
C1329      C1334   1.391       .  A
C1329      H1336   1.083       .  S
C1330      C1331   1.431       .  A
C1331      C1332   1.415       .  A
C1331      C1338   1.508       .  S
C1332      C1333   1.402       .  A
C1332      H1337   1.084       .  S
C1333      C1334   1.422       .  A
C1334      C1335   1.511       .  S
C1335      H1339   1.111       .  S
C1335      H1340   1.110       .  S
C1335      H1341   1.097       .  S
C1338      H1342   1.110       .  S
C1338      H1343   1.107       .  S
C1338      H1344   1.111       .  S
C1345      H1352   1.083       .  S
C1346      C1347   1.416       .  A
C1347      C1348   1.394       .  A
C1347      C1354   1.512       .  S
C1348      C1349   1.411       .  A
C1348      H1353   1.083       .  S
C1349      C1350   1.418       .  A
C1350      C2395   1.507   1_455  S
C1351      C2394   1.507       .  S
C1351      H1355   1.111       .  S
C1351      H1356   1.111       .  S
C1351      H1357   1.099       .  S
C1354      H1358   1.107       .  S
C1354      H1359   1.110       .  S
C1354      H1360   1.111       .  S
C1361      C1366   1.409       .  A
C1361      H1368   1.084       .  S
C1362      C1363   1.423       .  A
C1363      C1364   1.399       .  A
C1363      C1370   1.506       .  S
C1364      C1365   1.395       .  A
C1364      H1369   1.085       .  S
C1366      C1367   1.505       .  S
C1367      H1371   1.110       .  S
C1367      H1372   1.110       .  S
C1367      H1373   1.110       .  S
C1370      H1374   1.109       .  S
C1370      H1375   1.108       .  S
C1370      H1376   1.111       .  S
C1377      C1378   1.408       .  A
C1377      C1382   1.411       .  A
C1377      H1384   1.084       .  S
C1378      C1379   1.418       .  A
C1379      C1380   1.403       .  A
C1379      C1386   1.510       .  S
C1380      C1381   1.403       .  A
C1380      H1385   1.085       .  S
C1381      C1382   1.415       .  A
C1382      C1383   1.506       .  S
C1383      H1387   1.111       .  S
C1383      H1388   1.108       .  S
C1383      H1389   1.110       .  S
C1386      H1390   1.111       .  S
C1386      H1391   1.108       .  S
C1386      H1392   1.111       .  S
C1393      C1742   1.405       .  A
C1393      C1398   1.402       .  A
C1393      C2061   1.477       .  S
C1394      C1741   1.405       .  A
C1394      C1395   1.407       .  A
C1394      H1399   1.083       .  S
C1395      C1396   1.403       .  A
C1395      C1726   1.494       .  S
C1396      C1745   1.410       .  A
C1396      H1400   1.083       .  S
C1397      C1744   1.410       .  A
C1397      C1398   1.403       .  A
C1397      C2042   1.497       .  S
C1398      H1401   1.083       .  S
C1402      C1403   1.403       .  A
C1402      C1407   1.406       .  A
C1402      C1665   1.473       .  S
C1403      C1404   1.402       .  A
C1403      H1408   1.076       .  S
C1404      C1405   1.415       .  A
C1404      C1678   1.507       .  S
C1405      C1406   1.401       .  A
C1405      H1409   1.083       .  S
C1406      C1407   1.403       .  A
C1406      C1729   1.491       .  S
C1407      H1410   1.082       .  S
C1411      C1412   1.410       .  A
C1411      C1416   1.403       .  A
C1411      C1617   1.488       .  S
C1412      C1413   1.410       .  A
C1412      H1417   1.083       .  S
C1413      C1414   1.406       .  A
C1413      C1646   1.494       .  S
C1414      C1415   1.402       .  A
C1414      H1418   1.082       .  S
C1415      C1416   1.394       .  A
C1415      C1630   1.474       .  S
C1416      H1419   1.084       .  S
C1420      C1421   1.407       .  A
C1420      C1425   1.403       .  A
C1420      C1598   1.486       .  S
C1421      C1422   1.410       .  A
C1421      H1426   1.083       .  S
C1422      C1423   1.408       .  A
C1422      C1649   1.490       .  S
C1423      C1424   1.404       .  A
C1423      H1427   1.083       .  S
C1424      C1425   1.395       .  A
C1424      C1582   1.483       .  S
C1425      H1428   1.084       .  S
C1429      C1430   1.404       .  A
C1429      C1434   1.402       .  A
C1429      C1537   1.479       .  S
C1430      C1431   1.406       .  A
C1430      H1435   1.080       .  S
C1431      C1432   1.417       .  A
C1431      C1550   1.510       .  S
C1432      C1433   1.402       .  A
C1432      H1436   1.081       .  S
C1433      C1434   1.399       .  A
C1434      H1437   1.084       .  S
C1438      C1439   1.409       .  A
C1438      C1443   1.400       .  A
C1438      C1518   1.482       .  S
C1439      C1440   1.410       .  A
C1439      H1444   1.083       .  S
C1440      C1441   1.405       .  A
C1440      C1569   1.491       .  S
C1441      C1442   1.401       .  A
C1441      H1445   1.083       .  S
C1442      C1443   1.394       .  A
C1442      C1505   1.471       .  S
C1443      H1446   1.085       .  S
O1447      C1458   1.296       .  A
O1448      C1459   1.296       .  A
O1448     Zr1482   2.466       .  S
O1449      C1460   1.298       .  A
O1450      C1461   1.302       .  A
O1450     Zr1455   2.492       .  S
O1451      C1461   1.279       .  A
O1451     Zr1485   2.380       .  S
O1452      C1460   1.288       .  A
O1452     Zr2180   2.416       .  S
O1453      C1459   1.287       .  A
O1453     Zr1455   2.411       .  S
O1454      C1458   1.289       .  A
Zr1455     O1456   2.344       .  S
Zr1455     O1465   2.332       .  S
Zr1455     O1463   2.345       .  S
O1456     Zr1482   2.345       .  S
O1456     Zr1485   2.339       .  S
O1457     Zr2180   2.343       .  S
C1458      C1710   1.492       .  S
C1459      C1502   1.470       .  S
C1460      C1614   1.482       .  S
C1461      C1681   1.489       .  S
H1462      O1463   0.965       .  S
O1463     Zr1482   2.333       .  S
H1464      O1465   0.965       .  S
O1465     Zr1483   2.343       .  S
O1465     Zr1485   2.339       .  S
O1466      C1489   1.296       .  A
O1466     Zr2178   2.469   1_545  S
O1467      C2186   1.297   1_455  A
O1467     Zr1831   2.471   1_455  S
O1468     Zr1484   2.447       .  S
O1469      C1492   1.300       .  A
O1469     Zr1485   2.489       .  S
O1470      C1841   1.294       .  A
O1470     Zr1485   2.455   1_556  S
O1471      C2190   1.294       .  A
O1471     Zr1484   2.454       .  S
O1472     Zr1486   2.475       .  S
O1473      C1496   1.296       .  A
O1473     Zr1486   2.463   1_556  S
O1474      C1495   1.287       .  A
O1474     Zr1484   2.403       .  S
O1475      C2192   1.285   1_554  A
O1475     Zr1485   2.404       .  S
O1476      C1491   1.288       .  A
O1476     Zr2178   2.415   1_545  S
O1477      C1494   1.287       .  A
O1478      C1493   1.291       .  A
O1478     Zr1831   2.422       .  S
O1479      C1492   1.284       .  A
O1479     Zr1482   2.397       .  S
O1480      C1489   1.287       .  A
O1480     Zr1486   2.400       .  S
O1481      C1490   1.286       .  A
O1481     Zr1834   2.412       .  S
Zr1482     O2162   2.469       .  S
Zr1482     O2172   2.415       .  S
Zr1482     O2184   2.336       .  S
Zr1482     O1500   2.343       .  S
Zr1483     O1815   2.471   1_654  S
Zr1483     O1826   2.422   1_554  S
Zr1483     O1487   2.347       .  S
Zr1483     O2194   2.338       .  S
Zr1484     O2148   2.416   1_545  S
Zr1484     O2153   2.343   1_545  S
Zr1485     O1487   2.341       .  S
Zr1485     O1500   2.326       .  S
Zr1486     O1829   2.412   1_554  S
Zr1486     O2183   2.341   1_545  S
Zr1486     O1488   2.339       .  S
Zr1486     O2196   2.337       .  S
Zr1486     O1498   2.329       .  S
O1487     Zr2182   2.341       .  S
O1488     Zr2178   2.336   1_545  S
C1489      C1662   1.500       .  S
C1490      C1553   1.497   1_655  S
C1490      O2163   1.297   1_655  A
C1491      C1534   1.482       .  S
C1492      C1633   1.475       .  S
C1493      C1521   1.488       .  S
C1493      O1818   1.294       .  A
C1494      C2629   1.463       .  S
C1494      O2167   1.294       .  A
C1495      C1697   1.501       .  S
C1496      C1949   1.481       .  S
C1496      O2171   1.285   1_546  A
O1498     Zr2179   2.338   1_545  S
H1499      O2196   0.965       .  S
O1500     Zr2182   2.337       .  S
O1500      H2195   0.965       .  S
C1501      C1502   1.402       .  A
C1501      C1506   1.400       .  A
C1501      H1508   1.085       .  S
C1502      C1503   1.409       .  A
C1503      C1504   1.404       .  A
C1503      C1510   1.497       .  S
C1504      C1505   1.400       .  A
C1504      H1509   1.084       .  S
C1505      C1506   1.411       .  A
C1506      C1507   1.507       .  S
C1507      H1512   1.109   1_655  S
C1507      H1513   1.110       .  S
C1510      H1514   1.109       .  S
C1510      H1515   1.110       .  S
C1510      H1516   1.111       .  S
C1517      C1518   1.406       .  A
C1517      C1522   1.408       .  A
C1517      H1524   1.084       .  S
C1518      C1519   1.411       .  A
C1519      C1520   1.399       .  A
C1519      C1526   1.509       .  S
C1520      C1521   1.408       .  A
C1520      H1525   1.084       .  S
C1521      C1522   1.416       .  A
C1522      C1523   1.507       .  S
C1523      H1527   1.111       .  S
C1523      H1528   1.111       .  S
C1523      H1529   1.110       .  S
C1526      H1530   1.111   1_655  S
C1526      H1531   1.108       .  S
C1533      C1534   1.406       .  A
C1533      C1538   1.397       .  A
C1533      H1540   1.085       .  S
C1535      C1536   1.406       .  A
C1535      C1542   1.507       .  S
C1536      C1537   1.404       .  A
C1536      H1541   1.084       .  S
C1538      C1539   1.509       .  S
C1539      H1543   1.111       .  S
C1539      H1544   1.108       .  S
C1542      H1547   1.109       .  S
C1542      H1548   1.111       .  S
C1549      C1550   1.402       .  A
C1549      H1556   1.078       .  S
C1550      C1551   1.427       .  A
C1551      C1558   1.506       .  S
C1552      C1553   1.406       .  A
C1552      H1557   1.084       .  S
C1553      C1554   1.420       .  A
C1554      C1555   1.505   1_455  S
C1555      H1559   1.112       .  S
C1555      H1561   1.109       .  S
C1558      H1562   1.109       .  S
C1558      H1563   1.110       .  S
C1558      H1564   1.111       .  S
C1565      H1572   1.084       .  S
C1566      C1567   1.415       .  A
C1567      C1568   1.405       .  A
C1567      C1574   1.508       .  S
C1568      C1569   1.403       .  A
C1568      H1573   1.084       .  S
C1569      C1570   1.421       .  A
C1570      C1571   1.508   1_655  S
C1571      H1577   1.107       .  S
C1574      H1578   1.109       .  S
C1574      H1579   1.110       .  S
C1574      H1580   1.111       .  S
C1581      C1582   1.402       .  A
C1581      C1586   1.405       .  A
C1581      H1588   1.084       .  S
C1582      C1583   1.420       .  A
C1583      C2628   1.399   1_545  A
C1583      C2286   1.506   1_545  S
C1584      C2627   1.399   1_554  A
C1584      C2629   1.394       .  A
C1584      H1589   1.085       .  S
C1585      C2628   1.394   1_545  A
C1585      C1586   1.413       .  A
C1585      C2538   1.463       .  S
C1586      C1587   1.507       .  S
C1587      H1591   1.111       .  S
C1587      H1592   1.111       .  S
C1587      H1593   1.108       .  S
C1590      C2279   1.506       .  S
C1590      H2290   1.106       .  S
C1590      H1595   1.111       .  S
C1590      H1944   1.111       .  S
H1594      C2286   1.106       .  S
H1596      C1938   1.111   1_554  S
C1597      C1598   1.399       .  A
C1597      C1950   1.392   1_545  A
C1597      H1604   1.080   1_545  S
C1598      C1599   1.414       .  A
C1599      C1600   1.413       .  A
C1599      C1606   1.505       .  S
C1600      C1601   1.408       .  A
C1600      H1605   1.084       .  S
C1601      C1950   1.418   1_545  A
C1601      C1844   1.481       .  S
C1602      C1945   1.392   1_565  A
C1602      C1949   1.418   1_565  A
C1602      C2299   1.514   1_556  S
C1603      C2298   1.514   1_554  S
C1603      H1607   1.111       .  S
C1603      H2304   1.111       .  S
C1603      H1609   1.109       .  S
C1606      H1610   1.110       .  S
C1606      H1611   1.109       .  S
C1606      H1612   1.111       .  S
H1608      C2299   1.111       .  S
C1613      C1614   1.400       .  A
C1613      C1618   1.403       .  A
C1613      H1620   1.078       .  S
C1614      C1615   1.418       .  A
C1615      C1616   1.403       .  A
C1615      C1622   1.510       .  S
C1616      C1617   1.402       .  A
C1616      H1621   1.084       .  S
C1617      C1618   1.419       .  A
C1618      C1619   1.508       .  S
C1619      H1623   1.111       .  S
C1619      H1624   1.108       .  S
C1619      H1625   1.110       .  S
C1622      H1626   1.111       .  S
C1622      H1627   1.108       .  S
C1622      H1628   1.111       .  S
C1629      C1630   1.396       .  A
C1629      C1634   1.402       .  A
C1629      H1636   1.085       .  S
C1630      C1631   1.410       .  A
C1631      C1632   1.404       .  A
C1631      C2334   1.506       .  S
C1632      C1633   1.405       .  A
C1632      H2333   1.085       .  S
C1633      C1634   1.418       .  A
C1634      C1635   1.500       .  S
C1635      H1639   1.107       .  S
C1635      H1640   1.106       .  S
C1635      H1641   1.109       .  S
H1637      C2328   1.085   1_545  S
C1638      C2327   1.506   1_545  S
C1638      H1642   1.111       .  S
C1638      H1643   1.110       .  S
C1638      H1644   1.111       .  S
C1645      C1646   1.405       .  A
C1645      C1650   1.408       .  A
C1645      H1652   1.084       .  S
C1646      C1647   1.420       .  A
C1647      C2344   1.407       .  A
C1647      C1654   1.509       .  S
C1648      C2343   1.407       .  A
C1648      C1649   1.402       .  A
C1648      H1653   1.084       .  S
C1649      C2346   1.417   1_545  A
C1650      C2345   1.417       .  A
C1650      C2347   1.508       .  S
C1651      C2346   1.508       .  S
C1651      H2351   1.111       .  S
C1651      H1656   1.108       .  S
C1651      H2353   1.110       .  S
C1654      H1658   1.110       .  S
C1654      H1659   1.107       .  S
C1654      H1660   1.111       .  S
H1655      C2347   1.111       .  S
H1657      C2347   1.110       .  S
C1661      C1662   1.412       .  A
C1661      C1666   1.389       .  A
C1661      H1668   1.084       .  S
C1662      C1663   1.423       .  A
C1663      C1664   1.414       .  A
C1663      C1670   1.506       .  S
C1664      C1665   1.404       .  A
C1664      H1669   1.084       .  S
C1665      C1666   1.409       .  A
C1666      C1667   1.513       .  S
C1667      H1671   1.110       .  S
C1667      H1672   1.111       .  S
C1667      H1673   1.106       .  S
C1670      H1674   1.110       .  S
C1670      H1675   1.111       .  S
C1670      H1676   1.111       .  S
C1677      C1678   1.402       .  A
C1677      C1682   1.391       .  A
C1677      H1684   1.083       .  S
C1678      C1679   1.431       .  A
C1679      C1680   1.415       .  A
C1679      C1686   1.508       .  S
C1680      C1681   1.402       .  A
C1680      H1685   1.084       .  S
C1681      C1682   1.422       .  A
C1682      C1683   1.511       .  S
C1683      H1687   1.111       .  S
C1683      H1688   1.110       .  S
C1683      H1689   1.097       .  S
C1686      H1690   1.110       .  S
C1686      H1691   1.107       .  S
C1686      H1692   1.111       .  S
C1693      C2042   1.411       .  A
C1693      C2046   1.412       .  A
C1693      H1700   1.083       .  S
C1694      C2041   1.411       .  A
C1694      C1695   1.416       .  A
C1694      C1745   1.497       .  S
C1695      C1696   1.394       .  A
C1695      C1702   1.512       .  S
C1696      C1697   1.411       .  A
C1696      H1701   1.083       .  S
C1697      C1698   1.418       .  A
C1698      C2041   1.412       .  A
C1699      H1703   1.111       .  S
C1699      H1704   1.111       .  S
C1699      H1705   1.099       .  S
C1702      H1706   1.107       .  S
C1702      H1707   1.110       .  S
C1702      H1708   1.111       .  S
C1709      C2058   1.409       .  A
C1709      C1714   1.409       .  A
C1709      H1716   1.084       .  S
C1710      C2057   1.409   1_554  A
C1710      C1711   1.423       .  A
C1711      C1712   1.399       .  A
C1711      C1718   1.506       .  S
C1712      C1713   1.395       .  A
C1712      H1717   1.085       .  S
C1713      C2062   1.410   1_554  A
C1713      C1741   1.477       .  S
C1714      C2061   1.410       .  A
C1714      C1715   1.505       .  S
C1715      H1719   1.110       .  S
C1715      H1720   1.110       .  S
C1715      H1721   1.110       .  S
C1718      H1722   1.109       .  S
C1718      H1723   1.108       .  S
C1718      H1724   1.111       .  S
C1725      C1726   1.408       .  A
C1725      C1730   1.411       .  A
C1725      H1732   1.084   1_554  S
C1726      C1727   1.418       .  A
C1727      C1728   1.403       .  A
C1727      C1734   1.510       .  S
C1728      C1729   1.403       .  A
C1728      H1733   1.085       .  S
C1729      C1730   1.415       .  A
C1730      C1731   1.506       .  S
C1731      H1735   1.111   1_554  S
C1731      H1736   1.108       .  S
C1731      H1737   1.110       .  S
C1734      H1738   1.111       .  S
C1734      H1739   1.108       .  S
C1734      H1740   1.111       .  S
C1741      C1746   1.402       .  A
C1742      C1743   1.407       .  A
C1742      H1747   1.083       .  S
C1743      C1744   1.403       .  A
C1743      C2074   1.494       .  S
C1744      H1748   1.083       .  S
C1745      C1746   1.403       .  A
C1746      H1749   1.083       .  S
C1750      C1751   1.403       .  A
C1750      C1755   1.406       .  A
C1750      C2013   1.473       .  S
C1751      C1752   1.402       .  A
C1751      H1756   1.076       .  S
C1752      C1753   1.415       .  A
C1752      C2026   1.507       .  S
C1753      C1754   1.401       .  A
C1753      H1757   1.083       .  S
C1754      C1755   1.403       .  A
C1754      C2077   1.491       .  S
C1755      H1758   1.082       .  S
C1759      C1760   1.410       .  A
C1759      C1764   1.403       .  A
C1759      C1965   1.488       .  S
C1760      C1761   1.410       .  A
C1760      H1765   1.083       .  S
C1761      C1762   1.406       .  A
C1761      C1994   1.494       .  S
C1762      C1763   1.402       .  A
C1762      H1766   1.082       .  S
C1763      C1764   1.394       .  A
C1763      C1978   1.474       .  S
C1764      H1767   1.084       .  S
C1768      C1769   1.407       .  A
C1768      C1773   1.403       .  A
C1768      C1946   1.486       .  S
C1769      C1770   1.410       .  A
C1769      H1774   1.083       .  S
C1770      C1771   1.408       .  A
C1770      C1997   1.490       .  S
C1771      C1772   1.404       .  A
C1771      H1775   1.083       .  S
C1772      C1773   1.395       .  A
C1772      C1930   1.483       .  S
C1773      H1776   1.084       .  S
C1777      C1778   1.404       .  A
C1777      C1782   1.402       .  A
C1777      C1885   1.479       .  S
C1778      C1779   1.406       .  A
C1778      H1783   1.080       .  S
C1779      C1780   1.417       .  A
C1779      C1898   1.510       .  S
C1780      C1781   1.402       .  A
C1780      H1784   1.081       .  S
C1781      C1782   1.399       .  A
C1782      H1785   1.084       .  S
C1786      C1787   1.409       .  A
C1786      C1791   1.400       .  A
C1786      C1866   1.482       .  S
C1787      C1788   1.410       .  A
C1787      H1792   1.083       .  S
C1788      C1789   1.405       .  A
C1788      C1917   1.491       .  S
C1789      C1790   1.401       .  A
C1789      H1793   1.083       .  S
C1790      C1791   1.394       .  A
C1790      C1853   1.471       .  S
C1791      H1794   1.085       .  S
O1795      C1806   1.296       .  A
O1796      C1807   1.296       .  A
O1796     Zr1830   2.466       .  S
O1797      C1808   1.298       .  A
O1798      C1809   1.302       .  A
O1798     Zr1803   2.492       .  S
O1799      C1809   1.279       .  A
O1799     Zr1833   2.380       .  S
O1800      C1808   1.288       .  A
O1800     Zr2528   2.416       .  S
O1801      C1807   1.287       .  A
O1801     Zr1803   2.411       .  S
O1802      C1806   1.289       .  A
Zr1803     O1804   2.344       .  S
Zr1803     O1813   2.332       .  S
Zr1803     O1811   2.345       .  S
O1804     Zr1830   2.345       .  S
O1804     Zr1833   2.339       .  S
O1805     Zr2528   2.343       .  S
C1806      C2058   1.492       .  S
C1807      C1850   1.470       .  S
C1808      C1962   1.482       .  S
C1809      C2029   1.489       .  S
H1810      O1811   0.965       .  S
O1811     Zr1830   2.333       .  S
H1812      O1813   0.965       .  S
O1813     Zr1831   2.343       .  S
O1813     Zr1833   2.339       .  S
O1814      C1837   1.296       .  A
O1814     Zr2526   2.469   1_545  S
O1815      C2534   1.297   1_455  A
O1816     Zr1832   2.447       .  S
O1817      C1840   1.300       .  A
O1817     Zr1833   2.489       .  S
O1818     Zr1833   2.455       .  S
O1819      C2538   1.294       .  A
O1819     Zr1832   2.454       .  S
O1820     Zr1834   2.475       .  S
O1821      C1844   1.296       .  A
O1821     Zr1834   2.463       .  S
O1822      C1843   1.287       .  A
O1822     Zr1832   2.403       .  S
O1823      C2540   1.285       .  A
O1823     Zr1833   2.404       .  S
O1824      C1839   1.288       .  A
O1824     Zr2526   2.415   1_545  S
O1825      C1842   1.287       .  A
O1826      C1841   1.291       .  A
O1827      C1840   1.284       .  A
O1827     Zr1830   2.397       .  S
O1828      C1837   1.287       .  A
O1828     Zr1834   2.400       .  S
O1829      C1838   1.286       .  A
Zr1830     O2510   2.469       .  S
Zr1830     O2520   2.415       .  S
Zr1830     O2532   2.336       .  S
Zr1830     O1848   2.343       .  S
Zr1831     O1835   2.347       .  S
Zr1831     O2542   2.338       .  S
Zr1832     O2496   2.416   1_545  S
Zr1832     O2501   2.343   1_545  S
Zr1833     O1835   2.341       .  S
Zr1833     O1848   2.326       .  S
Zr1834     O2531   2.341   1_545  S
Zr1834     O1836   2.339       .  S
Zr1834     O2544   2.337       .  S
Zr1834     O1846   2.329       .  S
O1835     Zr2530   2.341       .  S
O1836     Zr2526   2.336   1_545  S
C1837      C2010   1.500       .  S
C1838      C1901   1.497   1_655  S
C1838      O2511   1.297   1_655  A
C1839      C1882   1.482       .  S
C1840      C1981   1.475       .  S
C1841      C1869   1.488       .  S
C1842      C2281   1.463       .  S
C1842      O2515   1.294       .  A
C1843      C2045   1.501       .  S
C1844      O2519   1.285   1_545  A
O1846     Zr2527   2.338   1_545  S
H1847      O2544   0.965       .  S
O1848     Zr2530   2.337       .  S
O1848      H2543   0.965       .  S
C1849      C1850   1.402       .  A
C1849      C1854   1.400       .  A
C1849      H1856   1.085       .  S
C1850      C1851   1.409       .  A
C1851      C1852   1.404       .  A
C1851      C1858   1.497       .  S
C1852      C1853   1.400       .  A
C1852      H1857   1.084       .  S
C1853      C1854   1.411       .  A
C1854      C1855   1.507       .  S
C1855      H1860   1.109   1_655  S
C1855      H1861   1.110       .  S
C1858      H1862   1.109       .  S
C1858      H1863   1.110       .  S
C1858      H1864   1.111       .  S
C1865      C1866   1.406       .  A
C1865      C1870   1.408       .  A
C1865      H1872   1.084       .  S
C1866      C1867   1.411       .  A
C1867      C1868   1.399       .  A
C1867      C1874   1.509       .  S
C1868      C1869   1.408       .  A
C1868      H1873   1.084       .  S
C1869      C1870   1.416       .  A
C1870      C1871   1.507       .  S
C1871      H1875   1.111       .  S
C1871      H1876   1.111       .  S
C1871      H1877   1.110       .  S
C1874      H1878   1.111   1_655  S
C1874      H1879   1.108       .  S
C1881      C1882   1.406       .  A
C1881      C1886   1.397       .  A
C1881      H1888   1.085       .  S
C1883      C1884   1.406       .  A
C1883      C1890   1.507       .  S
C1884      C1885   1.404       .  A
C1884      H1889   1.084       .  S
C1886      C1887   1.509       .  S
C1887      H1891   1.111       .  S
C1887      H1892   1.108       .  S
C1890      H1895   1.109       .  S
C1890      H1896   1.111       .  S
C1897      C1898   1.402       .  A
C1897      H1904   1.078       .  S
C1898      C1899   1.427       .  A
C1899      C1906   1.506       .  S
C1900      C1901   1.406       .  A
C1900      H1905   1.084       .  S
C1901      C1902   1.420       .  A
C1902      C1903   1.505   1_455  S
C1903      H1907   1.112       .  S
C1903      H1909   1.109       .  S
C1906      H1910   1.109       .  S
C1906      H1911   1.110       .  S
C1906      H1912   1.111       .  S
C1913      H1920   1.084       .  S
C1914      C1915   1.415       .  A
C1915      C1916   1.405       .  A
C1915      C1922   1.508       .  S
C1916      C1917   1.403       .  A
C1916      H1921   1.084       .  S
C1917      C1918   1.421       .  A
C1918      C1919   1.508   1_655  S
C1919      H1925   1.107       .  S
C1922      H1926   1.109       .  S
C1922      H1927   1.110       .  S
C1922      H1928   1.111       .  S
C1929      C1930   1.402       .  A
C1929      C1934   1.405       .  A
C1929      H1936   1.084       .  S
C1930      C1931   1.420       .  A
C1931      C2280   1.399   1_546  A
C1931      C2634   1.506   1_545  S
C1932      C2279   1.399       .  A
C1932      C2281   1.394       .  A
C1932      H1937   1.085       .  S
C1933      C2280   1.394   1_545  A
C1933      C1934   1.413   1_554  A
C1933      C2190   1.463       .  S
C1934      C1935   1.507       .  S
C1935      H1939   1.111       .  S
C1935      H1940   1.111       .  S
C1935      H1941   1.108       .  S
C1938      C2627   1.506       .  S
C1938      H2638   1.106   1_556  S
C1938      H1943   1.111       .  S
H1942      C2634   1.106   1_554  S
C1945      C1946   1.399       .  A
C1945      H1952   1.080   1_545  S
C1946      C1947   1.414       .  A
C1947      C1948   1.413       .  A
C1947      C1954   1.505       .  S
C1948      C1949   1.408       .  A
C1948      H1953   1.084       .  S
C1950      C2647   1.514       .  S
C1951      C2646   1.514       .  S
C1951      H1955   1.111       .  S
C1951      H2652   1.111       .  S
C1951      H1957   1.109       .  S
C1954      H1958   1.110       .  S
C1954      H1959   1.109       .  S
C1954      H1960   1.111       .  S
H1956      C2647   1.111       .  S
C1961      C1962   1.400       .  A
C1961      C1966   1.403       .  A
C1961      H1968   1.078       .  S
C1962      C1963   1.418       .  A
C1963      C1964   1.403       .  A
C1963      C1970   1.510       .  S
C1964      C1965   1.402       .  A
C1964      H1969   1.084       .  S
C1965      C1966   1.419       .  A
C1966      C1967   1.508       .  S
C1967      H1971   1.111       .  S
C1967      H1972   1.108       .  S
C1967      H1973   1.110       .  S
C1970      H1974   1.111       .  S
C1970      H1975   1.108       .  S
C1970      H1976   1.111       .  S
C1977      C1978   1.396       .  A
C1977      C1982   1.402       .  A
C1977      H1984   1.085       .  S
C1978      C1979   1.410       .  A
C1979      C1980   1.404       .  A
C1979      C2682   1.506       .  S
C1980      C1981   1.405       .  A
C1980      H2681   1.085       .  S
C1981      C1982   1.418       .  A
C1982      C1983   1.500       .  S
C1983      H1987   1.107       .  S
C1983      H1988   1.106       .  S
C1983      H1989   1.109       .  S
H1985      C2676   1.085   1_545  S
C1986      C2675   1.506   1_545  S
C1986      H1990   1.111       .  S
C1986      H1991   1.110       .  S
C1986      H1992   1.111       .  S
C1993      C1994   1.405       .  A
C1993      C1998   1.408       .  A
C1993      H2000   1.084       .  S
C1994      C1995   1.420       .  A
C1995      C2692   1.407       .  A
C1995      C2002   1.509       .  S
C1996      C2691   1.407       .  A
C1996      C1997   1.402       .  A
C1996      H2001   1.084       .  S
C1997      C2694   1.417   1_545  A
C1998      C2693   1.417       .  A
C1998      C2695   1.508       .  S
C1999      C2694   1.508       .  S
C1999      H2699   1.111       .  S
C1999      H2004   1.108       .  S
C1999      H2701   1.110       .  S
C2002      H2006   1.110       .  S
C2002      H2007   1.107       .  S
C2002      H2008   1.111       .  S
H2003      C2695   1.111       .  S
H2005      C2695   1.110       .  S
C2009      C2010   1.412       .  A
C2009      C2014   1.389       .  A
C2009      H2016   1.084       .  S
C2010      C2011   1.423       .  A
C2011      C2012   1.414       .  A
C2011      C2018   1.506       .  S
C2012      C2013   1.404       .  A
C2012      H2017   1.084       .  S
C2013      C2014   1.409       .  A
C2014      C2015   1.513       .  S
C2015      H2019   1.110       .  S
C2015      H2020   1.111       .  S
C2015      H2021   1.106       .  S
C2018      H2022   1.110       .  S
C2018      H2023   1.111       .  S
C2018      H2024   1.111       .  S
C2025      C2026   1.402       .  A
C2025      C2030   1.391       .  A
C2025      H2032   1.083       .  S
C2026      C2027   1.431       .  A
C2027      C2028   1.415       .  A
C2027      C2034   1.508       .  S
C2028      C2029   1.402       .  A
C2028      H2033   1.084       .  S
C2029      C2030   1.422       .  A
C2030      C2031   1.511       .  S
C2031      H2035   1.111       .  S
C2031      H2036   1.110       .  S
C2031      H2037   1.097       .  S
C2034      H2038   1.110       .  S
C2034      H2039   1.107       .  S
C2034      H2040   1.111       .  S
C2041      H2048   1.083       .  S
C2042      C2043   1.416       .  A
C2043      C2044   1.394       .  A
C2043      C2050   1.512       .  S
C2044      C2045   1.411       .  A
C2044      H2049   1.083       .  S
C2045      C2046   1.418       .  A
C2047      H2051   1.111       .  S
C2047      H2052   1.111       .  S
C2047      H2053   1.099       .  S
C2050      H2054   1.107       .  S
C2050      H2055   1.110       .  S
C2050      H2056   1.111       .  S
C2057      C2062   1.409       .  A
C2057      H2064   1.084       .  S
C2058      C2059   1.423       .  A
C2059      C2060   1.399       .  A
C2059      C2066   1.506       .  S
C2060      C2061   1.395       .  A
C2060      H2065   1.085       .  S
C2062      C2063   1.505       .  S
C2063      H2067   1.110       .  S
C2063      H2068   1.110       .  S
C2063      H2069   1.110       .  S
C2066      H2070   1.109       .  S
C2066      H2071   1.108       .  S
C2066      H2072   1.111       .  S
C2073      C2074   1.408       .  A
C2073      C2078   1.411       .  A
C2073      H2080   1.084       .  S
C2074      C2075   1.418       .  A
C2075      C2076   1.403       .  A
C2075      C2082   1.510       .  S
C2076      C2077   1.403       .  A
C2076      H2081   1.085       .  S
C2077      C2078   1.415       .  A
C2078      C2079   1.506       .  S
C2079      H2083   1.111       .  S
C2079      H2084   1.108       .  S
C2079      H2085   1.110       .  S
C2082      H2086   1.111       .  S
C2082      H2087   1.108       .  S
C2082      H2088   1.111       .  S
C2089      C2438   1.405       .  A
C2089      C2094   1.402       .  A
C2089      C2757   1.477       .  S
C2090      C2437   1.405       .  A
C2090      C2091   1.407       .  A
C2090      H2095   1.083       .  S
C2091      C2092   1.403       .  A
C2091      C2422   1.494       .  S
C2092      C2441   1.410       .  A
C2092      H2096   1.083       .  S
C2093      C2440   1.410       .  A
C2093      C2094   1.403       .  A
C2093      C2738   1.497       .  S
C2094      H2097   1.083       .  S
C2098      C2099   1.403       .  A
C2098      C2103   1.406       .  A
C2098      C2361   1.473       .  S
C2099      C2100   1.402       .  A
C2099      H2104   1.076       .  S
C2100      C2101   1.415       .  A
C2100      C2374   1.507       .  S
C2101      C2102   1.401       .  A
C2101      H2105   1.083       .  S
C2102      C2103   1.403       .  A
C2102      C2425   1.491       .  S
C2103      H2106   1.082       .  S
C2107      C2108   1.410       .  A
C2107      C2112   1.403       .  A
C2107      C2313   1.488       .  S
C2108      C2109   1.410       .  A
C2108      H2113   1.083       .  S
C2109      C2110   1.406       .  A
C2109      C2342   1.494       .  S
C2110      C2111   1.402       .  A
C2110      H2114   1.082       .  S
C2111      C2112   1.394       .  A
C2111      C2326   1.474       .  S
C2112      H2115   1.084       .  S
C2116      C2117   1.407       .  A
C2116      C2121   1.403       .  A
C2116      C2294   1.486       .  S
C2117      C2118   1.410       .  A
C2117      H2122   1.083       .  S
C2118      C2119   1.408       .  A
C2118      C2345   1.490       .  S
C2119      C2120   1.404       .  A
C2119      H2123   1.083       .  S
C2120      C2121   1.395       .  A
C2120      C2278   1.483       .  S
C2121      H2124   1.084       .  S
C2125      C2126   1.404       .  A
C2125      C2130   1.402       .  A
C2125      C2233   1.479       .  S
C2126      C2127   1.406       .  A
C2126      H2131   1.080       .  S
C2127      C2128   1.417       .  A
C2127      C2246   1.510       .  S
C2128      C2129   1.402       .  A
C2128      H2132   1.081       .  S
C2129      C2130   1.399       .  A
C2130      H2133   1.084       .  S
C2134      C2135   1.409       .  A
C2134      C2139   1.400       .  A
C2134      C2214   1.482       .  S
C2135      C2136   1.410       .  A
C2135      H2140   1.083       .  S
C2136      C2137   1.405       .  A
C2136      C2265   1.491       .  S
C2137      C2138   1.401       .  A
C2137      H2141   1.083       .  S
C2138      C2139   1.394       .  A
C2138      C2201   1.471       .  S
C2139      H2142   1.085       .  S
O2143      C2154   1.296       .  A
O2144      C2155   1.296       .  A
O2144     Zr2178   2.466       .  S
O2145      C2156   1.298       .  A
O2146      C2157   1.302       .  A
O2146     Zr2151   2.492       .  S
O2147      C2157   1.279       .  A
O2147     Zr2181   2.380       .  S
O2148      C2156   1.288       .  A
O2149      C2155   1.287       .  A
O2149     Zr2151   2.411       .  S
O2150      C2154   1.289       .  A
Zr2151     O2152   2.344       .  S
Zr2151     O2161   2.332       .  S
Zr2151     O2159   2.345       .  S
O2152     Zr2178   2.345       .  S
O2152     Zr2181   2.339       .  S
C2154      C2406   1.492       .  S
C2155      C2198   1.470       .  S
C2156      C2310   1.482       .  S
C2157      C2377   1.489       .  S
H2158      O2159   0.965       .  S
O2159     Zr2178   2.333       .  S
H2160      O2161   0.965       .  S
O2161     Zr2179   2.343       .  S
O2161     Zr2181   2.339       .  S
O2162      C2185   1.296       .  A
O2163     Zr2527   2.471   1_445  S
O2164     Zr2180   2.447       .  S
O2165      C2188   1.300       .  A
O2165     Zr2181   2.489       .  S
O2166      C2537   1.294       .  A
O2166     Zr2181   2.455   1_556  S
O2167     Zr2180   2.454       .  S
O2168     Zr2182   2.475       .  S
O2169      C2192   1.296       .  A
O2169     Zr2182   2.463   1_556  S
O2170      C2191   1.287       .  A
O2170     Zr2180   2.403       .  S
O2171     Zr2181   2.404       .  S
O2172      C2187   1.288       .  A
O2173      C2190   1.287   1_565  A
O2174      C2189   1.291       .  A
O2174     Zr2527   2.422       .  S
O2175      C2188   1.284       .  A
O2175     Zr2178   2.397       .  S
O2176      C2185   1.287       .  A
O2176     Zr2182   2.400       .  S
O2177      C2186   1.286       .  A
O2177     Zr2530   2.412       .  S
Zr2178     O2196   2.343   1_565  S
Zr2179     O2511   2.471   1_664  S
Zr2179     O2522   2.422   1_554  S
Zr2179     O2183   2.347       .  S
Zr2181     O2183   2.341       .  S
Zr2181     O2196   2.326   1_565  S
Zr2182     O2525   2.412   1_554  S
Zr2182     O2184   2.339       .  S
Zr2182     O2194   2.329       .  S
C2185      C2358   1.500       .  S
C2186      C2249   1.497   1_655  S
C2187      C2230   1.482       .  S
C2188      C2329   1.475       .  S
C2189      C2217   1.488       .  S
C2189      O2514   1.294       .  A
C2191      C2393   1.501       .  S
C2192      C2645   1.481       .  S
C2197      C2198   1.402       .  A
C2197      C2202   1.400       .  A
C2197      H2204   1.085       .  S
C2198      C2199   1.409       .  A
C2199      C2200   1.404       .  A
C2199      C2206   1.497       .  S
C2200      C2201   1.400       .  A
C2200      H2205   1.084       .  S
C2201      C2202   1.411       .  A
C2202      C2203   1.507       .  S
C2203      H2208   1.109   1_655  S
C2203      H2209   1.110       .  S
C2206      H2210   1.109       .  S
C2206      H2211   1.110       .  S
C2206      H2212   1.111       .  S
C2213      C2214   1.406       .  A
C2213      C2218   1.408       .  A
C2213      H2220   1.084       .  S
C2214      C2215   1.411       .  A
C2215      C2216   1.399       .  A
C2215      C2222   1.509       .  S
C2216      C2217   1.408       .  A
C2216      H2221   1.084       .  S
C2217      C2218   1.416       .  A
C2218      C2219   1.507       .  S
C2219      H2223   1.111       .  S
C2219      H2224   1.111       .  S
C2219      H2225   1.110       .  S
C2222      H2226   1.111   1_655  S
C2222      H2227   1.108       .  S
C2229      C2230   1.406       .  A
C2229      C2234   1.397       .  A
C2229      H2236   1.085       .  S
C2231      C2232   1.406       .  A
C2231      C2238   1.507       .  S
C2232      C2233   1.404       .  A
C2232      H2237   1.084       .  S
C2234      C2235   1.509       .  S
C2235      H2239   1.111       .  S
C2235      H2240   1.108       .  S
C2238      H2243   1.109       .  S
C2238      H2244   1.111       .  S
C2245      C2246   1.402       .  A
C2245      H2252   1.078       .  S
C2246      C2247   1.427       .  A
C2247      C2254   1.506       .  S
C2248      C2249   1.406       .  A
C2248      H2253   1.084       .  S
C2249      C2250   1.420       .  A
C2250      C2251   1.505   1_455  S
C2251      H2255   1.112       .  S
C2251      H2257   1.109       .  S
C2254      H2258   1.109       .  S
C2254      H2259   1.110       .  S
C2254      H2260   1.111       .  S
C2261      H2268   1.084       .  S
C2262      C2263   1.415       .  A
C2263      C2264   1.405       .  A
C2263      C2270   1.508       .  S
C2264      C2265   1.403       .  A
C2264      H2269   1.084       .  S
C2265      C2266   1.421       .  A
C2266      C2267   1.508   1_655  S
C2267      H2273   1.107       .  S
C2270      H2274   1.109       .  S
C2270      H2275   1.110       .  S
C2270      H2276   1.111       .  S
C2277      C2278   1.402       .  A
C2277      C2282   1.405       .  A
C2277      H2284   1.084       .  S
C2278      C2279   1.420       .  A
C2280      H2285   1.085       .  S
C2281      C2282   1.413       .  A
C2282      C2283   1.507       .  S
C2283      H2287   1.111       .  S
C2283      H2288   1.111       .  S
C2283      H2289   1.108       .  S
C2286      H2291   1.111       .  S
C2286      H2640   1.111       .  S
H2292      C2634   1.111   1_554  S
C2293      C2294   1.399       .  A
C2293      C2646   1.392       .  A
C2293      H2300   1.080       .  S
C2294      C2295   1.414       .  A
C2295      C2296   1.413       .  A
C2295      C2302   1.505       .  S
C2296      C2297   1.408       .  A
C2296      H2301   1.084       .  S
C2297      C2646   1.418       .  A
C2297      C2540   1.481       .  S
C2298      C2641   1.392       .  A
C2298      C2645   1.418       .  A
C2299      H2303   1.111       .  S
C2299      H2305   1.109       .  S
C2302      H2306   1.110       .  S
C2302      H2307   1.109       .  S
C2302      H2308   1.111       .  S
C2309      C2310   1.400       .  A
C2309      C2314   1.403       .  A
C2309      H2316   1.078       .  S
C2310      C2311   1.418       .  A
C2311      C2312   1.403       .  A
C2311      C2318   1.510   1_565  S
C2312      C2313   1.402       .  A
C2312      H2317   1.084       .  S
C2313      C2314   1.419       .  A
C2314      C2315   1.508       .  S
C2315      H2319   1.111       .  S
C2315      H2320   1.108       .  S
C2315      H2321   1.110       .  S
C2318      H2322   1.111   1_545  S
C2318      H2323   1.108       .  S
C2318      H2324   1.111       .  S
C2325      C2326   1.396       .  A
C2325      C2330   1.402       .  A
C2325      H2332   1.085       .  S
C2326      C2327   1.410       .  A
C2327      C2328   1.404       .  A
C2328      C2329   1.405       .  A
C2329      C2330   1.418       .  A
C2330      C2331   1.500       .  S
C2331      H2335   1.107       .  S
C2331      H2336   1.106       .  S
C2331      H2337   1.109       .  S
C2334      H2338   1.111       .  S
C2334      H2339   1.110       .  S
C2334      H2340   1.111       .  S
C2341      C2342   1.405       .  A
C2341      C2346   1.408       .  A
C2341      H2348   1.084       .  S
C2342      C2343   1.420   1_565  A
C2343      C2350   1.509       .  S
C2344      C2345   1.402       .  A
C2344      H2349   1.084       .  S
C2347      H2352   1.108       .  S
C2350      H2354   1.110       .  S
C2350      H2355   1.107       .  S
C2350      H2356   1.111       .  S
C2357      C2358   1.412       .  A
C2357      C2362   1.389       .  A
C2357      H2364   1.084       .  S
C2358      C2359   1.423       .  A
C2359      C2360   1.414       .  A
C2359      C2366   1.506       .  S
C2360      C2361   1.404       .  A
C2360      H2365   1.084       .  S
C2361      C2362   1.409       .  A
C2362      C2363   1.513       .  S
C2363      H2367   1.110       .  S
C2363      H2368   1.111       .  S
C2363      H2369   1.106       .  S
C2366      H2370   1.110       .  S
C2366      H2371   1.111       .  S
C2366      H2372   1.111       .  S
C2373      C2374   1.402       .  A
C2373      C2378   1.391       .  A
C2373      H2380   1.083       .  S
C2374      C2375   1.431       .  A
C2375      C2376   1.415       .  A
C2375      C2382   1.508       .  S
C2376      C2377   1.402       .  A
C2376      H2381   1.084       .  S
C2377      C2378   1.422       .  A
C2378      C2379   1.511       .  S
C2379      H2383   1.111       .  S
C2379      H2384   1.110       .  S
C2379      H2385   1.097       .  S
C2382      H2386   1.110       .  S
C2382      H2387   1.107       .  S
C2382      H2388   1.111       .  S
C2389      C2738   1.411       .  A
C2389      C2742   1.412       .  A
C2389      H2396   1.083       .  S
C2390      C2737   1.411       .  A
C2390      C2391   1.416       .  A
C2390      C2441   1.497       .  S
C2391      C2392   1.394       .  A
C2391      C2398   1.512       .  S
C2392      C2393   1.411       .  A
C2392      H2397   1.083       .  S
C2393      C2394   1.418       .  A
C2394      C2737   1.412       .  A
C2395      H2399   1.111       .  S
C2395      H2400   1.111       .  S
C2395      H2401   1.099       .  S
C2398      H2402   1.107       .  S
C2398      H2403   1.110       .  S
C2398      H2404   1.111       .  S
C2405      C2754   1.409       .  A
C2405      C2410   1.409       .  A
C2405      H2412   1.084       .  S
C2406      C2753   1.409   1_554  A
C2406      C2407   1.423       .  A
C2407      C2408   1.399       .  A
C2407      C2414   1.506       .  S
C2408      C2409   1.395       .  A
C2408      H2413   1.085       .  S
C2409      C2758   1.410   1_554  A
C2409      C2437   1.477       .  S
C2410      C2757   1.410       .  A
C2410      C2411   1.505       .  S
C2411      H2415   1.110       .  S
C2411      H2416   1.110       .  S
C2411      H2417   1.110       .  S
C2414      H2418   1.109       .  S
C2414      H2419   1.108       .  S
C2414      H2420   1.111       .  S
C2421      C2422   1.408       .  A
C2421      C2426   1.411       .  A
C2421      H2428   1.084   1_554  S
C2422      C2423   1.418       .  A
C2423      C2424   1.403       .  A
C2423      C2430   1.510       .  S
C2424      C2425   1.403       .  A
C2424      H2429   1.085       .  S
C2425      C2426   1.415       .  A
C2426      C2427   1.506       .  S
C2427      H2431   1.111   1_554  S
C2427      H2432   1.108       .  S
C2427      H2433   1.110       .  S
C2430      H2434   1.111       .  S
C2430      H2435   1.108       .  S
C2430      H2436   1.111       .  S
C2437      C2442   1.402       .  A
C2438      C2439   1.407       .  A
C2438      H2443   1.083       .  S
C2439      C2440   1.403       .  A
C2439      C2770   1.494       .  S
C2440      H2444   1.083       .  S
C2441      C2442   1.403       .  A
C2442      H2445   1.083       .  S
C2446      C2447   1.403       .  A
C2446      C2451   1.406       .  A
C2446      C2709   1.473       .  S
C2447      C2448   1.402       .  A
C2447      H2452   1.076       .  S
C2448      C2449   1.415       .  A
C2448      C2722   1.507       .  S
C2449      C2450   1.401       .  A
C2449      H2453   1.083       .  S
C2450      C2451   1.403       .  A
C2450      C2773   1.491       .  S
C2451      H2454   1.082       .  S
C2455      C2456   1.410       .  A
C2455      C2460   1.403       .  A
C2455      C2661   1.488       .  S
C2456      C2457   1.410       .  A
C2456      H2461   1.083       .  S
C2457      C2458   1.406       .  A
C2457      C2690   1.494       .  S
C2458      C2459   1.402       .  A
C2458      H2462   1.082       .  S
C2459      C2460   1.394       .  A
C2459      C2674   1.474       .  S
C2460      H2463   1.084       .  S
C2464      C2465   1.407       .  A
C2464      C2469   1.403       .  A
C2464      C2642   1.486       .  S
C2465      C2466   1.410       .  A
C2465      H2470   1.083       .  S
C2466      C2467   1.408       .  A
C2466      C2693   1.490       .  S
C2467      C2468   1.404       .  A
C2467      H2471   1.083       .  S
C2468      C2469   1.395       .  A
C2468      C2626   1.483       .  S
C2469      H2472   1.084       .  S
C2473      C2474   1.404       .  A
C2473      C2478   1.402       .  A
C2473      C2581   1.479       .  S
C2474      C2475   1.406       .  A
C2474      H2479   1.080       .  S
C2475      C2476   1.417       .  A
C2475      C2594   1.510       .  S
C2476      C2477   1.402       .  A
C2476      H2480   1.081       .  S
C2477      C2478   1.399       .  A
C2478      H2481   1.084       .  S
C2482      C2483   1.409       .  A
C2482      C2487   1.400       .  A
C2482      C2562   1.482       .  S
C2483      C2484   1.410       .  A
C2483      H2488   1.083       .  S
C2484      C2485   1.405       .  A
C2484      C2613   1.491       .  S
C2485      C2486   1.401       .  A
C2485      H2489   1.083       .  S
C2486      C2487   1.394       .  A
C2486      C2549   1.471       .  S
C2487      H2490   1.085       .  S
O2491      C2502   1.296       .  A
O2492      C2503   1.296       .  A
O2492     Zr2526   2.466       .  S
O2493      C2504   1.298       .  A
O2494      C2505   1.302       .  A
O2494     Zr2499   2.492       .  S
O2495      C2505   1.279       .  A
O2495     Zr2529   2.380       .  S
O2496      C2504   1.288       .  A
O2497      C2503   1.287       .  A
O2497     Zr2499   2.411       .  S
O2498      C2502   1.289       .  A
Zr2499     O2500   2.344       .  S
Zr2499     O2509   2.332       .  S
Zr2499     O2507   2.345       .  S
O2500     Zr2526   2.345       .  S
O2500     Zr2529   2.339       .  S
C2502      C2754   1.492       .  S
C2503      C2546   1.470       .  S
C2504      C2658   1.482       .  S
C2505      C2725   1.489       .  S
H2506      O2507   0.965       .  S
O2507     Zr2526   2.333       .  S
H2508      O2509   0.965       .  S
O2509     Zr2527   2.343       .  S
O2509     Zr2529   2.339       .  S
O2510      C2533   1.296       .  A
O2512     Zr2528   2.447       .  S
O2513      C2536   1.300       .  A
O2513     Zr2529   2.489       .  S
O2514     Zr2529   2.455       .  S
O2515     Zr2528   2.454       .  S
O2516     Zr2530   2.475       .  S
O2517      C2540   1.296       .  A
O2517     Zr2530   2.463       .  S
O2518      C2539   1.287       .  A
O2518     Zr2528   2.403       .  S
O2519     Zr2529   2.404       .  S
O2520      C2535   1.288       .  A
O2521      C2538   1.287   1_565  A
O2522      C2537   1.291       .  A
O2523      C2536   1.284       .  A
O2523     Zr2526   2.397       .  S
O2524      C2533   1.287       .  A
O2524     Zr2530   2.400       .  S
O2525      C2534   1.286       .  A
Zr2526     O2544   2.343   1_565  S
Zr2527     O2531   2.347       .  S
Zr2529     O2531   2.341       .  S
Zr2529     O2544   2.326   1_565  S
Zr2530     O2532   2.339       .  S
Zr2530     O2542   2.329       .  S
C2533      C2706   1.500       .  S
C2534      C2597   1.497   1_655  S
C2535      C2578   1.482       .  S
C2536      C2677   1.475       .  S
C2537      C2565   1.488       .  S
C2539      C2741   1.501       .  S
C2545      C2546   1.402       .  A
C2545      C2550   1.400       .  A
C2545      H2552   1.085       .  S
C2546      C2547   1.409       .  A
C2547      C2548   1.404       .  A
C2547      C2554   1.497       .  S
C2548      C2549   1.400       .  A
C2548      H2553   1.084       .  S
C2549      C2550   1.411       .  A
C2550      C2551   1.507       .  S
C2551      H2556   1.109   1_655  S
C2551      H2557   1.110       .  S
C2554      H2558   1.109       .  S
C2554      H2559   1.110       .  S
C2554      H2560   1.111       .  S
C2561      C2562   1.406       .  A
C2561      C2566   1.408       .  A
C2561      H2568   1.084       .  S
C2562      C2563   1.411       .  A
C2563      C2564   1.399       .  A
C2563      C2570   1.509       .  S
C2564      C2565   1.408       .  A
C2564      H2569   1.084       .  S
C2565      C2566   1.416       .  A
C2566      C2567   1.507       .  S
C2567      H2571   1.111       .  S
C2567      H2572   1.111       .  S
C2567      H2573   1.110       .  S
C2570      H2574   1.111   1_655  S
C2570      H2575   1.108       .  S
C2577      C2578   1.406       .  A
C2577      C2582   1.397       .  A
C2577      H2584   1.085       .  S
C2579      C2580   1.406       .  A
C2579      C2586   1.507       .  S
C2580      C2581   1.404       .  A
C2580      H2585   1.084       .  S
C2582      C2583   1.509       .  S
C2583      H2587   1.111       .  S
C2583      H2588   1.108       .  S
C2586      H2591   1.109       .  S
C2586      H2592   1.111       .  S
C2593      C2594   1.402       .  A
C2593      H2600   1.078       .  S
C2594      C2595   1.427       .  A
C2595      C2602   1.506       .  S
C2596      C2597   1.406       .  A
C2596      H2601   1.084       .  S
C2597      C2598   1.420       .  A
C2598      C2599   1.505   1_455  S
C2599      H2603   1.112       .  S
C2599      H2605   1.109       .  S
C2602      H2606   1.109       .  S
C2602      H2607   1.110       .  S
C2602      H2608   1.111       .  S
C2609      H2616   1.084       .  S
C2610      C2611   1.415       .  A
C2611      C2612   1.405       .  A
C2611      C2618   1.508       .  S
C2612      C2613   1.403       .  A
C2612      H2617   1.084       .  S
C2613      C2614   1.421       .  A
C2614      C2615   1.508   1_655  S
C2615      H2621   1.107       .  S
C2618      H2622   1.109       .  S
C2618      H2623   1.110       .  S
C2618      H2624   1.111       .  S
C2625      C2626   1.402       .  A
C2625      C2630   1.405       .  A
C2625      H2632   1.084       .  S
C2626      C2627   1.420       .  A
C2628      H2633   1.085       .  S
C2629      C2630   1.413   1_554  A
C2630      C2631   1.507       .  S
C2631      H2635   1.111       .  S
C2631      H2636   1.111       .  S
C2631      H2637   1.108       .  S
C2634      H2639   1.111       .  S
C2641      C2642   1.399       .  A
C2641      H2648   1.080       .  S
C2642      C2643   1.414       .  A
C2643      C2644   1.413       .  A
C2643      C2650   1.505       .  S
C2644      C2645   1.408       .  A
C2644      H2649   1.084       .  S
C2647      H2651   1.111       .  S
C2647      H2653   1.109       .  S
C2650      H2654   1.110       .  S
C2650      H2655   1.109       .  S
C2650      H2656   1.111       .  S
C2657      C2658   1.400       .  A
C2657      C2662   1.403       .  A
C2657      H2664   1.078       .  S
C2658      C2659   1.418       .  A
C2659      C2660   1.403       .  A
C2659      C2666   1.510   1_565  S
C2660      C2661   1.402       .  A
C2660      H2665   1.084       .  S
C2661      C2662   1.419       .  A
C2662      C2663   1.508       .  S
C2663      H2667   1.111       .  S
C2663      H2668   1.108       .  S
C2663      H2669   1.110       .  S
C2666      H2670   1.111   1_545  S
C2666      H2671   1.108       .  S
C2666      H2672   1.111       .  S
C2673      C2674   1.396       .  A
C2673      C2678   1.402       .  A
C2673      H2680   1.085       .  S
C2674      C2675   1.410       .  A
C2675      C2676   1.404       .  A
C2676      C2677   1.405       .  A
C2677      C2678   1.418       .  A
C2678      C2679   1.500       .  S
C2679      H2683   1.107       .  S
C2679      H2684   1.106       .  S
C2679      H2685   1.109       .  S
C2682      H2686   1.111       .  S
C2682      H2687   1.110       .  S
C2682      H2688   1.111       .  S
C2689      C2690   1.405       .  A
C2689      C2694   1.408       .  A
C2689      H2696   1.084       .  S
C2690      C2691   1.420   1_565  A
C2691      C2698   1.509       .  S
C2692      C2693   1.402       .  A
C2692      H2697   1.084       .  S
C2695      H2700   1.108       .  S
C2698      H2702   1.110       .  S
C2698      H2703   1.107       .  S
C2698      H2704   1.111       .  S
C2705      C2706   1.412       .  A
C2705      C2710   1.389       .  A
C2705      H2712   1.084       .  S
C2706      C2707   1.423       .  A
C2707      C2708   1.414       .  A
C2707      C2714   1.506       .  S
C2708      C2709   1.404       .  A
C2708      H2713   1.084       .  S
C2709      C2710   1.409       .  A
C2710      C2711   1.513       .  S
C2711      H2715   1.110       .  S
C2711      H2716   1.111       .  S
C2711      H2717   1.106       .  S
C2714      H2718   1.110       .  S
C2714      H2719   1.111       .  S
C2714      H2720   1.111       .  S
C2721      C2722   1.402       .  A
C2721      C2726   1.391       .  A
C2721      H2728   1.083       .  S
C2722      C2723   1.431       .  A
C2723      C2724   1.415       .  A
C2723      C2730   1.508       .  S
C2724      C2725   1.402       .  A
C2724      H2729   1.084       .  S
C2725      C2726   1.422       .  A
C2726      C2727   1.511       .  S
C2727      H2731   1.111       .  S
C2727      H2732   1.110       .  S
C2727      H2733   1.097       .  S
C2730      H2734   1.110       .  S
C2730      H2735   1.107       .  S
C2730      H2736   1.111       .  S
C2737      H2744   1.083       .  S
C2738      C2739   1.416       .  A
C2739      C2740   1.394       .  A
C2739      C2746   1.512       .  S
C2740      C2741   1.411       .  A
C2740      H2745   1.083       .  S
C2741      C2742   1.418       .  A
C2743      H2747   1.111       .  S
C2743      H2748   1.111       .  S
C2743      H2749   1.099       .  S
C2746      H2750   1.107       .  S
C2746      H2751   1.110       .  S
C2746      H2752   1.111       .  S
C2753      C2758   1.409       .  A
C2753      H2760   1.084       .  S
C2754      C2755   1.423       .  A
C2755      C2756   1.399       .  A
C2755      C2762   1.506       .  S
C2756      C2757   1.395       .  A
C2756      H2761   1.085       .  S
C2758      C2759   1.505       .  S
C2759      H2763   1.110       .  S
C2759      H2764   1.110       .  S
C2759      H2765   1.110       .  S
C2762      H2766   1.109       .  S
C2762      H2767   1.108       .  S
C2762      H2768   1.111       .  S
C2769      C2770   1.408       .  A
C2769      C2774   1.411       .  A
C2769      H2776   1.084       .  S
C2770      C2771   1.418       .  A
C2771      C2772   1.403       .  A
C2771      C2778   1.510       .  S
C2772      C2773   1.403       .  A
C2772      H2777   1.085       .  S
C2773      C2774   1.415       .  A
C2774      C2775   1.506       .  S
C2775      H2779   1.111       .  S
C2775      H2780   1.108       .  S
C2775      H2781   1.110       .  S
C2778      H2782   1.111       .  S
C2778      H2783   1.108       .  S
C2778      H2784   1.111       .  S
