geometry optimzed in LAMMPS
_audit_creation_date              2020-12-01 
_audit_creation_method            'lammps2cif' 
_symmetry_space_group_name_H-M    'P1' 
_symmetry_Int_Tables_number       1 
_symmetry_cell_setting            triclinic 
loop_ 
_symmetry_equiv_pos_as_xyz 
  x,y,z 
_cell_length_a                    122.04929266 
_cell_length_b                    122.03331056928153 
_cell_length_c                    26.805313978236782 
_cell_angle_alpha                 89.99757065089382 
_cell_angle_beta                  90.00376360783716 
_cell_angle_gamma                 159.57823957336666 
loop_ 
_atom_site_label 
_atom_site_type_symbol 
_atom_site_fract_x 
_atom_site_fract_y 
_atom_site_fract_z 
_atom_site_charge 
N1          N  0.05923856  0.27913794  0.35256336    -0.27200
N2          N  0.07088692  0.28165442  0.32757899    -0.35000
C3          C  0.08169573  0.28426708  0.35992609     0.01200
C4          C  0.07671143  0.28340808  0.40791225     0.07200
C5          C  0.06227526  0.27999761  0.40167957    -0.05900
H6          H  0.09323413  0.28755881  0.34903734     0.07900
H7          H  0.05605937  0.27997298  0.43052970     0.09100
Cu8        Cu  0.07406348  0.28402818  0.25089063     0.44200
Cu9        Cu  0.04317134  0.27840596  0.31873783     0.42000
Cu10       Cu  0.04881218  0.28446863  0.18389110     0.43900
N11         N  0.07387348  0.28493418  0.17414977    -0.34600
N12         N  0.06407438  0.28446525  0.14940043    -0.28800
C13         C  0.06718866  0.28548258  0.10024122    -0.04900
C14         C  0.07974185  0.28685042  0.09379703     0.07300
C15         C  0.08370880  0.28651688  0.14159080     0.01100
H16         H  0.06186846  0.28642974  0.07148211     0.08700
H17         H  0.09334270  0.28767800  0.15212115     0.07800
N18         N  0.03532806  0.28519641  0.22703924    -0.36000
N19         N  0.03276754  0.28249557  0.27619858    -0.28200
C20         C  0.02376910  0.28401491  0.29260236    -0.03400
C21         C  0.02063387  0.28798832  0.25185077     0.05200
C22         C  0.02819699  0.28866194  0.21095608     0.03300
H23         H  0.01997177  0.28253378  0.33137089     0.08400
H24         H  0.02870552  0.29169209  0.17231197     0.07200
C25         C  0.08824889  0.28935174  0.45518388     0.03200
C26         C  0.07642345  0.28202706  0.00109488    -0.12900
C27         C  0.08970445  0.29104528  0.04637874     0.00700
C28         C  0.11466789  0.30692101  0.04568681    -0.11400
C29         C  0.12682571  0.31448756  0.00035972     0.03200
C30         C  0.11334254  0.30536057  0.45502623    -0.10900
H31         H  0.05723381  0.26985039  0.00153348     0.08800
H32         H  0.12645887  0.31579040  0.08010471     0.06400
H33         H  0.12414919  0.31306647  0.42016299     0.06200
N34         N  0.44825081  0.31131008  0.14932564    -0.27200
N35         N  0.43703043  0.30927922  0.17422549    -0.35000
C36         C  0.42644215  0.30689542  0.14178434     0.01200
C37         C  0.43116938  0.30744438  0.09384915     0.07200
C38         C  0.44517773  0.31038597  0.10019291    -0.05900
H39         H  0.41531563  0.30407286  0.15256351     0.07900
H40         H  0.45114534  0.31013075  0.07140711     0.09100
Cu41       Cu  0.43428475  0.30743025  0.25096831     0.44200
Cu42       Cu  0.46390070  0.31159988  0.18320221     0.42000
Cu43       Cu  0.45825870  0.30562062  0.31792598     0.43900
N44         N  0.43442957  0.30647344  0.32773654    -0.34600
N45         N  0.44373447  0.30640705  0.35244351    -0.28800
C46         C  0.44063709  0.30540142  0.40160794    -0.04900
C47         C  0.42860910  0.30459918  0.40811181     0.07300
C48         C  0.42493040  0.30525050  0.36034101     0.01100
H49         H  0.44558288  0.30405465  0.43032768     0.08700
H50         H  0.41568530  0.30451367  0.34986037     0.07800
N51         N  0.47115725  0.30424981  0.27493474    -0.36000
N52         N  0.47373425  0.30693125  0.22577657    -0.28200
C53         C  0.48240707  0.30506253  0.20947665    -0.03400
C54         C  0.48532078  0.30089105  0.25030592     0.05200
C55         C  0.47795416  0.30045208  0.29112845     0.03300
H56         H  0.48621216  0.30652247  0.17074128     0.08400
H57         H  0.47743342  0.29744033  0.32981214     0.07200
C58         C  0.41880206  0.30057627  0.45555942     0.03200
C59         C  0.43191786  0.30935316  0.50081577    -0.12900
C60         C  0.42003175  0.30194043  0.04647798     0.00700
C61         C  0.39520211  0.28628626  0.04634036    -0.11400
C62         C  0.38201127  0.27756854  0.50166928     0.03200
C63         C  0.39411070  0.28506458  0.45630729    -0.10900
H64         H  0.45090860  0.32126379  0.50034090     0.08800
H65         H  0.38422820  0.27842470  0.08107516     0.06400
H66         H  0.38243249  0.27636921  0.42188152     0.06200
N67         N  0.24071426  0.10361195  0.14456056    -0.27200
N68         N  0.24159374  0.11376784  0.16954670    -0.35000
C69         C  0.24268867  0.12319616  0.13721377     0.01200
C70         C  0.24243775  0.11877528  0.08925176     0.07200
C71         C  0.24108542  0.10621351  0.09542288    -0.05900
H72         H  0.24428027  0.13320572  0.14806623     0.07900
H73         H  0.24187936  0.10079217  0.06646675     0.09100
Cu74       Cu  0.24281696  0.11600070  0.24627534     0.44200
Cu75       Cu  0.24157807  0.08904218  0.17858657     0.42000
Cu76       Cu  0.24112761  0.08892547  0.31399531     0.43900
N77         N  0.24187574  0.11428254  0.32308195    -0.34600
N78         N  0.24061332  0.10378163  0.34807786    -0.28800
C79         C  0.24100931  0.10638959  0.39718931    -0.04900
C80         C  0.24279470  0.11934478  0.40342276     0.07300
C81         C  0.24330620  0.12402405  0.35544761     0.01100
H82         H  0.24147871  0.10064775  0.42609160     0.08700
H83         H  0.24518061  0.13429588  0.34465839     0.07800
N84         N  0.24387101  0.07720430  0.27168486    -0.36000
N85         N  0.24383680  0.07702617  0.22231500    -0.28200
C86         C  0.24614431  0.06872162  0.20667329    -0.03400
C87         C  0.24781904  0.06354482  0.24815138     0.05200
C88         C  0.24633811  0.06916532  0.28868019     0.03300
H89         H  0.24691432  0.06693096  0.16798788     0.08400
H90         H  0.24711326  0.06762811  0.32768439     0.07200
C91         C  0.24708637  0.12941822  0.45089124     0.03200
C92         C  0.26268814  0.15420521  0.45160005    -0.12900
C93         C  0.27078126  0.16673758  0.99711723     0.00700
C94         C  0.26237869  0.15377284  0.04205426    -0.11400
C95         C  0.24695582  0.12912928  0.04203185     0.01700
C96         C  0.23911907  0.11690433  0.99630095    -0.10900
H97         H  0.27121946  0.16576321  0.41715572     0.08800
H98         H  0.27051396  0.16491662  0.07683277     0.06400
H99         H  0.22736391  0.09802644  0.99604629     0.06200
N100        N  0.26787550  0.98822117  0.35585310    -0.27200
N101        N  0.26672300  0.47806494  0.33027564    -0.35000
C102        C  0.26557426  0.46857199  0.36253685     0.01200
C103        C  0.26612156  0.47324345  0.41054903     0.07200
C104        C  0.26769079  0.98578279  0.40498530    -0.05900
H105        H  0.26376862  0.45837212  0.35160317     0.07900
H106        H  0.26709725  0.99138809  0.43396877     0.09100
Cu107      Cu  0.26521627  0.47562362  0.25353653     0.44200
Cu108      Cu  0.26703621  0.00282642  0.32188224     0.42000
Cu109      Cu  0.26673909  0.00232944  0.18651472     0.43900
N110        N  0.26615980  0.47737864  0.17672896    -0.34600
N111        N  0.26721209  0.98744370  0.15233569    -0.28800
C112        C  0.26685010  0.98488585  0.10320295    -0.04900
C113        C  0.26534028  0.47242857  0.09635540     0.07300
C114        C  0.26481078  0.46772184  0.14431385     0.01100
H115        H  0.26639881  0.99065538  0.07434759     0.08700
H116        H  0.26300430  0.45750955  0.15506528     0.07800
N117        N  0.26427272  0.01428872  0.22901237    -0.36000
N118        N  0.26459570  0.01470783  0.27838018    -0.28200
C119        C  0.26238750  0.02309735  0.29418005    -0.03400
C120        C  0.26047685  0.02807914  0.25280861     0.05200
C121        C  0.26171937  0.02225695  0.21217829     0.03300
H122        H  0.26182489  0.02505902  0.33290585     0.08400
H123        H  0.26071154  0.02359781  0.17321300     0.07200
C124        C  0.26118671  0.46248159  0.04884533     0.03200
C125        C  0.26935570  0.47512358  0.00345910    -0.12900
C126        C  0.26175050  0.46301210  0.45779601     0.00700
C127        C  0.24645004  0.43845645  0.45787835    -0.11400
C128        C  0.23810011  0.42558850  0.00272224     0.03200
C129        C  0.24588683  0.43792180  0.04811146    -0.10900
H130        H  0.28106334  0.99373098  0.00434289     0.08800
H131        H  0.23830198  0.42728154  0.42315076     0.06400
H132        H  0.23745923  0.42642894  0.08255030     0.06200
C133        C  0.19390098  0.35779436  0.00039904     0.80300
N134        N  0.16383954  0.33349139  0.99958767    -0.78000
C135        C  0.15852933  0.33950187  0.99987747     0.82800
N136        N  0.18303333  0.36948056  0.00122622    -0.77900
C137        C  0.21289441  0.39375074  0.00208183     0.82900
N138        N  0.21852373  0.38804457  0.00157232    -0.79600
N139        N  0.21536475  0.32910661  0.14875570    -0.27200
N140        N  0.20877364  0.33197787  0.17364779    -0.35000
C141        C  0.20431196  0.33608246  0.14142549     0.01200
C142        C  0.20827503  0.33585332  0.09340440     0.07200
C143        C  0.21526059  0.33132773  0.09972462    -0.05900
H144        H  0.19874654  0.33915328  0.15258684     0.07900
H145        H  0.22022346  0.32998919  0.07112095     0.09100
Cu146      Cu  0.20684090  0.33104861  0.25009705     0.44200
Cu147      Cu  0.22426437  0.32234231  0.18277047     0.42000
Cu148      Cu  0.22086981  0.31894066  0.31760788     0.43900
N149        N  0.20772840  0.33093746  0.32658663    -0.34600
N150        N  0.21294754  0.32668071  0.35154161    -0.28800
C151        C  0.21270604  0.32875093  0.40058490    -0.04900
C152        C  0.20706592  0.33462991  0.40686860     0.07300
C153        C  0.20403044  0.33580492  0.35879320     0.01100
H154        H  0.21670691  0.32642880  0.42921487     0.08700
H155        H  0.19976094  0.34017989  0.34757208     0.07800
N156        N  0.22868623  0.31221210  0.27485510    -0.36000
N157        N  0.23015335  0.31368068  0.22554698    -0.28200
C158        C  0.23555801  0.30846590  0.20924587    -0.03400
C159        C  0.23757874  0.30344295  0.25017397     0.05200
C160        C  0.23309543  0.30600230  0.29112892     0.03300
H161        H  0.23779622  0.30827265  0.17041910     0.08400
H162        H  0.23324382  0.30372057  0.32995616     0.07200
C163        C  0.20548059  0.33942975  0.45442171     0.03200
C164        C  0.20054095  0.34622631  0.45475229    -0.12900
C165        C  0.19964279  0.35124373  0.00033755     0.00700
C166        C  0.20122822  0.34694260  0.04552180    -0.11400
C167        C  0.20612847  0.34010755  0.04585310     0.03200
C168        C  0.20910907  0.33735545  0.50011037    -0.10900
H169        H  0.19747436  0.34780097  0.42019976     0.08800
H170        H  0.19868396  0.34903139  0.08011879     0.06400
H171        H  0.21246679  0.33175901  0.50026571     0.06200
N172        N  0.28524281  0.25474792  0.35103360    -0.27200
N173        N  0.29216283  0.25221799  0.32611452    -0.35000
C174        C  0.29808224  0.24959842  0.35837448     0.01200
C175        C  0.29480029  0.25051687  0.40643699     0.07200
C176        C  0.28659196  0.25379106  0.40011755    -0.05900
H177        H  0.30465311  0.24755691  0.34724679     0.07900
H178        H  0.28196810  0.25546423  0.42879563     0.09100
Cu179      Cu  0.29389933  0.25296360  0.24963579     0.44200
Cu180      Cu  0.27527900  0.26042653  0.31698322     0.42000
Cu181      Cu  0.28055767  0.26575965  0.18221028     0.43900
N182        N  0.29455948  0.25463082  0.17316475    -0.34600
N183        N  0.28971260  0.25926263  0.14821992    -0.28800
C184        C  0.29147328  0.25871813  0.09915627    -0.04900
C185        C  0.29775253  0.25347941  0.09285305     0.07300
C186        C  0.29953117  0.25104214  0.14093724     0.01100
H187        H  0.28818105  0.26175186  0.07050491     0.08700
H188        H  0.30397404  0.24683905  0.15213245     0.07800
N189        N  0.27147002  0.27119633  0.22503622    -0.36000
N190        N  0.26933007  0.26903647  0.27427919    -0.28200
C191        C  0.26345297  0.27377320  0.29062827    -0.03400
C192        C  0.26179516  0.27917813  0.24980184     0.05200
C193        C  0.26699479  0.27734720  0.20885765     0.03300
H194        H  0.26075954  0.27349402  0.32943828     0.08400
H195        H  0.26739778  0.28019324  0.17009726     0.07200
C196        C  0.29960201  0.24896352  0.45405416     0.03200
C197        C  0.29905232  0.25410429  0.99955526    -0.12900
C198        C  0.30129197  0.25063561  0.04522675     0.00700
C199        C  0.30670316  0.24430827  0.04479312    -0.11400
C200        C  0.30965436  0.24138025  0.99955082     0.03200
C201        C  0.30487448  0.24249957  0.45462835    -0.10900
H202        H  0.29522528  0.25923680  0.99954247     0.08800
H203        H  0.30857575  0.24153628  0.07935249     0.06400
H204        H  0.30533077  0.23830695  0.42019789     0.06200
C205        C  0.31535562  0.23478874  0.99958743     0.80300
N206        N  0.34536254  0.25899172  0.00129066    -0.78000
C207        C  0.35050986  0.25281390  0.00142988     0.82800
N208        N  0.32590940  0.22278951  0.99967579    -0.77900
C209        C  0.29612335  0.19864375  0.99789198     0.82900
N210        N  0.29066040  0.20451149  0.99789640    -0.79600
C211        C  0.22123412  0.26872430  0.26932851    -0.01700
C212        C  0.24375996  0.29721592  0.25015631     0.07900
C213        C  0.27225334  0.31977829  0.23091471    -0.01900
C214        C  0.27815802  0.31392332  0.23080508    -0.01900
C215        C  0.25561468  0.28540947  0.24991259     0.08100
C216        C  0.22711131  0.26283996  0.26914958    -0.02100
Br217      Br  0.19525707  0.22301902  0.29301793    -0.00600
Br218      Br  0.18153094  0.23693935  0.29374037    -0.00700
Br219      Br  0.31794999  0.34581985  0.20661826    -0.00600
Br220      Br  0.30402770  0.35952953  0.20683027    -0.00600
C221        C  0.27899466  0.07579982  0.26698889    -0.01700
C222        C  0.25110301  0.05451287  0.24912979     0.07900
C223        C  0.22626066  0.02448724  0.23268700    -0.01900
C224        C  0.22925190  0.01578156  0.23418903    -0.01900
C225        C  0.25715653  0.03707872  0.25200045     0.08100
C226        C  0.28198464  0.06709247  0.26850317    -0.02100
Br227      Br  0.32064242  0.09679860  0.29142316    -0.00600
Br228      Br  0.31372820  0.11748804  0.28729294    -0.00700
Br229      Br  0.19454682  0.47427804  0.21392998    -0.00600
Br230      Br  0.18741323  0.49475138  0.20963525    -0.00600
C231        C  0.48508666  0.26996077  0.22420939    -0.01700
C232        C  0.01148395  0.29117528  0.25178570     0.07900
C233        C  0.02926689  0.31560777  0.27877162    -0.01900
C234        C  0.02074722  0.31879337  0.27815868    -0.01900
C235        C  0.49437856  0.29760874  0.25052765     0.08100
C236        C  0.47657000  0.27315058  0.22358717    -0.02100
Br237      Br  0.43939731  0.24281813  0.18777876    -0.00600
Br238      Br  0.45940954  0.23534946  0.18924088    -0.00700
Br239      Br  0.04641031  0.35338136  0.31322131    -0.00600
Br240      Br  0.06642707  0.34593031  0.31461912    -0.00600
N241        N  0.05953440  0.27942832  0.85250055    -0.27200
N242        N  0.07130629  0.28207180  0.82757928    -0.35000
C243        C  0.08209933  0.28468094  0.85999902     0.01200
C244        C  0.07697114  0.28368294  0.90795846     0.07200
C245        C  0.06247472  0.28020196  0.90163394    -0.05900
H246        H  0.09369669  0.28803394  0.84918377     0.07900
H247        H  0.05612371  0.28004247  0.93044397     0.09100
Cu248      Cu  0.07458058  0.28452191  0.75087513     0.44200
Cu249      Cu  0.04336832  0.27858413  0.81864091     0.42000
Cu250      Cu  0.04907556  0.28468672  0.68385964     0.43900
N251        N  0.07432324  0.28535107  0.67410286    -0.34600
N252        N  0.06441164  0.28476391  0.64937223    -0.28800
C253        C  0.06743591  0.28569320  0.60020399    -0.04900
C254        C  0.08004711  0.28712586  0.59371631     0.07300
C255        C  0.08414756  0.28692747  0.64150641     0.01100
H256        H  0.06199443  0.28651659  0.57145819     0.08700
H257        H  0.09384027  0.28814998  0.65200178     0.07800
N258        N  0.03551667  0.28534781  0.72691113    -0.36000
N259        N  0.03292915  0.28262939  0.77606622    -0.28200
C260        C  0.02390915  0.28412941  0.79242431    -0.03400
C261        C  0.02078840  0.28810860  0.75164362     0.05200
C262        C  0.02838076  0.28880458  0.71078061     0.03300
H263        H  0.02010245  0.28264699  0.83118302     0.08400
H264        H  0.02891840  0.29185676  0.67212976     0.07200
C265        C  0.08836596  0.28949198  0.95532001     0.03200
C266        C  0.07644495  0.28202025  0.50104276    -0.12900
C267        C  0.08988366  0.29119963  0.54623043     0.00700
C268        C  0.11486975  0.30710718  0.54535010    -0.11400
C269        C  0.12688294  0.31452996  0.49993028     0.03200
C270        C  0.11344783  0.30548586  0.95535301    -0.10900
H271        H  0.05724202  0.26982484  0.50161075     0.08800
H272        H  0.12677572  0.31609354  0.57968116     0.06400
H273        H  0.12436800  0.31330291  0.92057030     0.06200
N274        N  0.44849882  0.31154902  0.64925527    -0.27200
N275        N  0.43740153  0.30964353  0.67421937    -0.35000
C276        C  0.42678095  0.30723852  0.64185306     0.01200
C277        C  0.43135505  0.30763980  0.59389232     0.07200
C278        C  0.44531382  0.31052309  0.60014207    -0.05900
H279        H  0.41571320  0.30447663  0.65270646     0.07900
H280        H  0.45114800  0.31013568  0.57131585     0.09100
Cu281      Cu  0.43478700  0.30790523  0.75094954     0.44200
Cu282      Cu  0.46407837  0.31175714  0.68309413     0.42000
Cu283      Cu  0.45856293  0.30588032  0.81788626     0.43900
N284        N  0.43489935  0.30690776  0.82768934    -0.34600
N285        N  0.44411186  0.30674510  0.85241156    -0.28800
C286        C  0.44094125  0.30566884  0.90156806    -0.04900
C287        C  0.42896116  0.30491981  0.90803392     0.07300
C288        C  0.42539297  0.30568167  0.86026084     0.01100
H289        H  0.44578286  0.30421658  0.93029907     0.08700
H290        H  0.41619203  0.30499050  0.84974860     0.07800
N291        N  0.47137130  0.30442696  0.77480013    -0.36000
N292        N  0.47390317  0.30707209  0.72563509    -0.28200
C293        C  0.48254946  0.30517903  0.70928943    -0.03400
C294        C  0.48549136  0.30102738  0.75009171     0.05200
C295        C  0.47816797  0.30062532  0.79094765     0.03300
H296        H  0.48632975  0.30662172  0.67054087     0.08400
H297        H  0.47768738  0.29764696  0.82962804     0.07200
C298        C  0.41903671  0.30078493  0.95541682     0.03200
C299        C  0.43200407  0.30941245  0.00076519    -0.12900
C300        C  0.42007412  0.30200153  0.54661127     0.00700
C301        C  0.39522864  0.28632730  0.54665986    -0.11400
C302        C  0.38213495  0.27767818  0.00125267     0.03200
C303        C  0.39436667  0.28530245  0.95598363    -0.10900
H304        H  0.45097843  0.32130101  0.00041674     0.08800
H305        H  0.38436016  0.27856590  0.58147531     0.06400
H306        H  0.38279394  0.27671227  0.92147651     0.06200
N307        N  0.24066458  0.10362504  0.64443664    -0.27200
N308        N  0.24156686  0.11379384  0.66948454    -0.35000
C309        C  0.24257877  0.12315544  0.63719642     0.01200
C310        C  0.24224257  0.11866856  0.58920587     0.07200
C311        C  0.24093078  0.10614315  0.59531489    -0.05900
H312        H  0.24419125  0.13318192  0.64808956     0.07900
H313        H  0.24170607  0.10071324  0.56631868     0.09100
Cu314      Cu  0.24296029  0.11614380  0.74623284     0.44200
Cu315      Cu  0.24170840  0.08921383  0.67833182     0.42000
Cu316      Cu  0.24157735  0.08932100  0.81376031     0.43900
N317        N  0.24218118  0.11453768  0.82305006    -0.34600
N318        N  0.24102376  0.10412388  0.84797344    -0.28800
C319        C  0.24146329  0.10675234  0.89710472    -0.04900
C320        C  0.24316600  0.11962878  0.90342718     0.07300
C321        C  0.24358725  0.12424367  0.85548587     0.01100
H322        H  0.24199843  0.10106139  0.92595563     0.08700
H323        H  0.24536081  0.13442796  0.84476582     0.07800
N324        N  0.24435781  0.07766592  0.77125846    -0.36000
N325        N  0.24420939  0.07740648  0.72188789    -0.28200
C326        C  0.24660184  0.06919316  0.70611809    -0.03400
C327        C  0.24845062  0.06416185  0.74751613     0.05200
C328        C  0.24698376  0.06977157  0.78812718     0.03300
H329        H  0.24732040  0.06737547  0.66740266     0.08400
H330        H  0.24788649  0.06833523  0.82710180     0.07200
C331        C  0.24740788  0.12964457  0.95093602     0.03200
C332        C  0.26291823  0.15436212  0.95170030    -0.12900
C333        C  0.27062835  0.16664826  0.49699258     0.00700
C334        C  0.26221989  0.15368969  0.54196108    -0.11400
C335        C  0.24671207  0.12898297  0.54198858     0.01700
C336        C  0.23878052  0.11667757  0.49628313    -0.10900
H337        H  0.27144212  0.16592568  0.91727716     0.08800
H338        H  0.27041508  0.16488219  0.57671975     0.06400
H339        H  0.22695704  0.09774833  0.49607073     0.06200
N340        N  0.26829259  0.98870840  0.85583680    -0.27200
N341        N  0.26669565  0.47810408  0.83021074    -0.35000
C342        C  0.26547622  0.46855450  0.86250663     0.01200
C343        C  0.26596783  0.47318487  0.91049531     0.07200
C344        C  0.26791837  0.98608413  0.90495746    -0.05900
H345        H  0.26367818  0.45835984  0.85160315     0.07900
H346        H  0.26740222  0.99175897  0.93395706     0.09100
Cu347      Cu  0.26531490  0.47574224  0.75349417     0.44200
Cu348      Cu  0.26793950  0.00377204  0.82189289     0.42000
Cu349      Cu  0.26779844  0.00333023  0.68643292     0.43900
N350        N  0.26640470  0.47758988  0.67669911    -0.34600
N351        N  0.26815732  0.98833152  0.65228113    -0.28800
C352        C  0.26779380  0.98574546  0.60317142    -0.04900
C353        C  0.26562881  0.47264295  0.59636843     0.07300
C354        C  0.26499845  0.46786542  0.64436571     0.01100
H355        H  0.26742230  0.99157519  0.57424982     0.08700
H356        H  0.26306866  0.45754581  0.65519856     0.07800
N357        N  0.26540854  0.01538604  0.72879436    -0.36000
N358        N  0.26570430  0.01581335  0.77816328    -0.28200
C359        C  0.26350905  0.02422589  0.79381541    -0.03400
C360        C  0.26163250  0.02921122  0.75234875     0.05200
C361        C  0.26288142  0.02336818  0.71181675     0.03300
H362        H  0.26288383  0.02615394  0.83250515     0.08400
H363        H  0.26185708  0.02466704  0.67282027     0.07200
C364        C  0.26142436  0.46263374  0.54890608     0.03200
C365        C  0.26962447  0.47528399  0.50348782    -0.12900
C366        C  0.26156036  0.46292223  0.95773746     0.00700
C367        C  0.24633755  0.43842487  0.95775962    -0.11400
C368        C  0.23819041  0.42561585  0.50287919     0.03200
C369        C  0.24603163  0.43800294  0.54823837    -0.10900
H370        H  0.28157918  0.99412291  0.50422457     0.08800
H371        H  0.23823309  0.42728794  0.92301214     0.06400
H372        H  0.23758513  0.42650870  0.58270046     0.06200
C373        C  0.19389993  0.35775913  0.49983458     0.80300
N374        N  0.16386048  0.33349156  0.49851905    -0.78000
C375        C  0.15858008  0.33953120  0.49922584     0.82800
N376        N  0.18310076  0.36951337  0.50112804    -0.77900
C377        C  0.21294532  0.39375426  0.50227602     0.82900
N378        N  0.21853428  0.38800795  0.50172915    -0.79600
N379        N  0.22098878  0.33478008  0.64873849    -0.27200
N380        N  0.21462535  0.33788634  0.67362211    -0.35000
C381        C  0.20923831  0.34104461  0.64133970     0.01200
C382        C  0.21231946  0.33991150  0.59329144     0.07200
C383        C  0.21981247  0.33590458  0.59964769    -0.05900
H384        H  0.20333311  0.34377160  0.65245550     0.07900
H385        H  0.22418931  0.33397141  0.57099482     0.09100
Cu386      Cu  0.21340068  0.33769267  0.75009619     0.44200
Cu387      Cu  0.23039310  0.32853587  0.68285829     0.42000
Cu388      Cu  0.22724724  0.32539874  0.81767568     0.43900
N389        N  0.21370528  0.33699651  0.82658780    -0.34600
N390        N  0.21881013  0.33262374  0.85153694    -0.28800
C391        C  0.21753566  0.33365282  0.90060029    -0.04900
C392        C  0.21127967  0.33891186  0.90691063     0.07300
C393        C  0.20903610  0.34088770  0.85883169     0.01100
H394        H  0.22104333  0.33083374  0.92924181     0.08700
H395        H  0.20431039  0.34480871  0.84765701     0.07800
N396        N  0.23507508  0.31867665  0.77500103    -0.36000
N397        N  0.23644954  0.32004513  0.72568697    -0.28200
C398        C  0.24180615  0.31477939  0.70942418    -0.03400
C399        C  0.24388548  0.30982256  0.75038634     0.05200
C400        C  0.23949343  0.31247963  0.79132028     0.03300
H401        H  0.24395478  0.31448931  0.67060046     0.08400
H402        H  0.23969179  0.31025527  0.83016007     0.07200
C403        C  0.20776034  0.34176272  0.95455180     0.03200
C404        C  0.20295952  0.34869418  0.95506865    -0.12900
C405        C  0.19959918  0.35116484  0.49987836     0.00700
C406        C  0.20353651  0.34922873  0.54511217    -0.11400
C407        C  0.20827922  0.34223972  0.54565455     0.03200
C408        C  0.20916418  0.33744912  0.00015028    -0.10900
H409        H  0.20170251  0.35208506  0.92055249     0.08800
H410        H  0.20280095  0.35313365  0.57960013     0.06400
H411        H  0.21250101  0.33183297  0.00007616     0.06200
N412        N  0.29068486  0.26023815  0.85089994    -0.27200
N413        N  0.29781072  0.25791804  0.82600592    -0.35000
C414        C  0.30285950  0.25440703  0.85824670     0.01200
C415        C  0.29875570  0.25448662  0.90627231     0.07200
C416        C  0.29102950  0.25825584  0.89993692    -0.05900
H417        H  0.30910229  0.25202721  0.84711896     0.07900
H418        H  0.28585385  0.25937136  0.92854800     0.09100
Cu419      Cu  0.30017986  0.25931890  0.74955858     0.44200
Cu420      Cu  0.28120341  0.26641261  0.81693755     0.42000
Cu421      Cu  0.28662829  0.27190943  0.68218121     0.43900
N422        N  0.30019624  0.26034511  0.67306782    -0.34600
N423        N  0.29522188  0.26484827  0.64811519    -0.28800
C424        C  0.29595285  0.26326672  0.59904433    -0.04900
C425        C  0.30163640  0.25742932  0.59275339     0.07300
C426        C  0.30420926  0.25579364  0.64084893     0.01100
H427        H  0.29218060  0.26581622  0.57039095     0.08700
H428        H  0.30823353  0.25117440  0.65207550     0.07800
N429        N  0.27766043  0.27746299  0.72508134    -0.36000
N430        N  0.27546988  0.27524316  0.77431749    -0.28200
C431        C  0.26962077  0.28000364  0.79072117    -0.03400
C432        C  0.26802374  0.28547902  0.74993861     0.05200
C433        C  0.27323895  0.28367197  0.70896155     0.03300
H434        H  0.26688213  0.27966937  0.82953605     0.08400
H435        H  0.27366471  0.28654972  0.67021670     0.07200
C436        C  0.30176281  0.25110519  0.95388156     0.03200
C437        C  0.29895571  0.25404823  0.49953993    -0.12900
C438        C  0.30333122  0.25273003  0.54520297     0.00700
C439        C  0.30890663  0.24656425  0.54488064    -0.11400
C440        C  0.30962355  0.24138531  0.49982199     0.03200
C441        C  0.30714803  0.24475177  0.95429821    -0.10900
H442        H  0.29507252  0.25912695  0.49936466     0.08800
H443        H  0.31250861  0.24553189  0.57941146     0.06400
H444        H  0.30930253  0.24226656  0.91971714     0.06200
C445        C  0.31529246  0.23475990  0.49997502     0.80300
N446        N  0.34527286  0.25892408  0.50219216    -0.78000
C447        C  0.35039162  0.25271718  0.50205691     0.82800
N448        N  0.32577696  0.22269066  0.49985356    -0.77900
C449        C  0.29601245  0.19857877  0.49772833     0.82900
N450        N  0.29059266  0.20448913  0.49765547    -0.79600
C451        C  0.22753768  0.27510567  0.76966619    -0.01700
C452        C  0.25004894  0.30357837  0.75040822     0.07900
C453        C  0.27852139  0.32611655  0.73112049    -0.01900
C454        C  0.28440826  0.32024426  0.73098990    -0.01900
C455        C  0.26186402  0.29173201  0.75011508     0.08100
C456        C  0.23339209  0.26919807  0.76945517    -0.02100
Br457      Br  0.20155002  0.22939748  0.79344625    -0.00600
Br458      Br  0.18789780  0.24339099  0.79429069    -0.00700
Br459      Br  0.32419272  0.35213130  0.70678937    -0.00600
Br460      Br  0.31030246  0.36587155  0.70703674    -0.00600
C461        C  0.27989278  0.07671681  0.76608565    -0.01700
C462        C  0.25190352  0.05529524  0.74837714     0.07900
C463        C  0.22710822  0.02527738  0.73207143    -0.01900
C464        C  0.23022608  0.01669535  0.73363431    -0.01900
C465        C  0.25820698  0.03810671  0.75138331     0.08100
C466        C  0.28300005  0.06812448  0.76770012    -0.02100
Br467      Br  0.32175196  0.09797634  0.79055141    -0.00600
Br468      Br  0.31459718  0.11843155  0.78601168    -0.00700
Br469      Br  0.19546667  0.47525227  0.71251249    -0.00600
Br470      Br  0.18853749  0.49592146  0.70840174    -0.00600
C471        C  0.48528418  0.27012237  0.72393404    -0.01700
C472        C  0.01166148  0.29131832  0.75153523     0.07900
C473        C  0.02946179  0.31576623  0.77849249    -0.01900
C474        C  0.02094847  0.31895805  0.77788348    -0.01900
C475        C  0.49456553  0.29776087  0.75026993     0.08100
C476        C  0.47677136  0.27331642  0.72329822    -0.02100
Br477      Br  0.43962520  0.24300814  0.68742028    -0.00600
Br478      Br  0.45961987  0.23552135  0.68895144    -0.00700
Br479      Br  0.04663603  0.35356559  0.81292231    -0.00600
Br480      Br  0.06663856  0.34610125  0.81429069    -0.00600
N481        N  0.05871131  0.77851509  0.35237002    -0.27200
N482        N  0.07016503  0.78082848  0.32730826    -0.35000
C483        C  0.08096938  0.78341865  0.35957568     0.01200
C484        C  0.07618444  0.78275638  0.40759624     0.07200
C485        C  0.06186311  0.77947736  0.40146326    -0.05900
H486        H  0.09241640  0.78661322  0.34860727     0.07900
H487        H  0.05585233  0.77966173  0.43035416     0.09100
Cu488      Cu  0.07322953  0.78313288  0.25061741     0.44200
Cu489      Cu  0.04287215  0.77803846  0.31860571     0.42000
Cu490      Cu  0.04859066  0.78426377  0.18372117     0.43900
N491        N  0.07326513  0.78431280  0.17390785    -0.34600
N492        N  0.06372429  0.78412428  0.14917990    -0.28800
C493        C  0.06700528  0.78532057  0.10002556    -0.04900
C494        C  0.07939869  0.78651462  0.09357915     0.07300
C495        C  0.08309321  0.78588804  0.14135444     0.01100
H496        H  0.06191550  0.78651278  0.07128564     0.08700
H497        H  0.09255217  0.78685956  0.15188514     0.07800
N498        N  0.03514838  0.78501035  0.22706608    -0.36000
N499        N  0.03257537  0.78226539  0.27622191    -0.28200
C500        C  0.02355116  0.78374813  0.29275313    -0.03400
C501        C  0.02040334  0.78773573  0.25209534     0.05200
C502        C  0.02799354  0.78846258  0.21111811     0.03300
H503        H  0.01970203  0.78218848  0.33154349     0.08400
H504        H  0.02846729  0.79148207  0.17250278     0.07200
C505        C  0.08788895  0.78886207  0.45477905     0.03200
C506        C  0.07645500  0.78209207  0.00082521    -0.12900
C507        C  0.08948408  0.79082839  0.04622054     0.00700
C508        C  0.11432097  0.80653325  0.04573923    -0.11400
C509        C  0.12660967  0.81421575  0.00051833     0.03200
C510        C  0.11299857  0.80488893  0.45444356    -0.10900
H511        H  0.05736033  0.77004244  0.00111588     0.08800
H512        H  0.12593325  0.81519945  0.08026399     0.06400
H513        H  0.12367265  0.81245634  0.41949758     0.06200
N514        N  0.44779689  0.81082151  0.14969353    -0.27200
N515        N  0.43658353  0.80880643  0.17453952    -0.35000
C516        C  0.42613718  0.80656814  0.14203513     0.01200
C517        C  0.43095796  0.80720432  0.09411895     0.07200
C518        C  0.44486085  0.81003178  0.10054397    -0.05900
H519        H  0.41508331  0.80383101  0.15275163     0.07900
H520        H  0.45088907  0.80983383  0.07178956     0.09100
Cu521      Cu  0.43378974  0.80692963  0.25130229     0.44200
Cu522      Cu  0.46335152  0.81101532  0.18362550     0.42000
Cu523      Cu  0.45757686  0.80493964  0.31835605     0.43900
N524        N  0.43403750  0.80610506  0.32810682    -0.34600
N525        N  0.44329302  0.80598965  0.35284356    -0.28800
C526        C  0.44035583  0.80516484  0.40201187    -0.04900
C527        C  0.42847960  0.80452715  0.40849521     0.07300
C528        C  0.42472074  0.80508423  0.36070228     0.01100
H529        H  0.44531368  0.80383791  0.43076546     0.08700
H530        H  0.41555761  0.80443501  0.35020981     0.07800
N531        N  0.47044724  0.80352386  0.27542722    -0.36000
N532        N  0.47308698  0.80625746  0.22627562    -0.28200
C533        C  0.48178667  0.80441261  0.21002882    -0.03400
C534        C  0.48465601  0.80020423  0.25088168     0.05200
C535        C  0.47723118  0.79971559  0.29166640     0.03300
H536        H  0.48566104  0.80593499  0.17131283     0.08400
H537        H  0.47668786  0.79668937  0.33035896     0.07200
C538        C  0.41888300  0.80074084  0.45597495     0.03200
C539        C  0.43217449  0.80970959  0.50113950    -0.12900
C540        C  0.42008340  0.80198012  0.04665410     0.00700
C541        C  0.39540732  0.78653096  0.04630477    -0.11400
C542        C  0.38226270  0.77792185  0.50232339     0.03200
C543        C  0.39420190  0.78524139  0.45688433    -0.10900
H544        H  0.45115648  0.82160847  0.50053822     0.08800
H545        H  0.38434054  0.77859650  0.08094542     0.06400
H546        H  0.38239767  0.77640702  0.42253759     0.06200
N547        N  0.24047753  0.60359242  0.14396017    -0.27200
N548        N  0.24142685  0.61380580  0.16900140    -0.35000
C549        C  0.24265682  0.62336733  0.13672381     0.01200
C550        C  0.24242591  0.61897747  0.08874461     0.07200
C551        C  0.24094104  0.60629243  0.09484076    -0.05900
H552        H  0.24433929  0.63345680  0.14763118     0.07900
H553        H  0.24172357  0.60086693  0.06585583     0.09100
Cu554      Cu  0.24259777  0.61597835  0.24571882     0.44200
Cu555      Cu  0.24118973  0.58887126  0.17785907     0.42000
Cu556      Cu  0.24080009  0.58881987  0.31329891     0.43900
N557        N  0.24160422  0.61421611  0.32250884    -0.34600
N558        N  0.24029727  0.60367210  0.34748133    -0.28800
C559        C  0.24073205  0.60630908  0.39659882    -0.04900
C560        C  0.24259963  0.61933870  0.40285237     0.07300
C561        C  0.24310488  0.62401825  0.35488878     0.01100
H562        H  0.24120849  0.60057055  0.42548627     0.08700
H563        H  0.24505711  0.63436236  0.34411651     0.07800
N564        N  0.24358008  0.57713954  0.27097679    -0.36000
N565        N  0.24350843  0.57692075  0.22160741    -0.28200
C566        C  0.24587709  0.56867431  0.20598475    -0.03400
C567        C  0.24763313  0.56358233  0.24747890     0.05200
C568        C  0.24613457  0.56918784  0.28799250     0.03300
H569        H  0.24664900  0.56688145  0.16730518     0.08400
H570        H  0.24696873  0.56771143  0.32700039     0.07200
C571        C  0.24704709  0.62954623  0.45030760     0.03200
C572        C  0.26282664  0.65446711  0.45095671    -0.12900
C573        C  0.27119947  0.66731696  0.99686873     0.00700
C574        C  0.26263891  0.65421177  0.04173917    -0.11400
C575        C  0.24710711  0.62948731  0.04158868     0.01700
C576        C  0.23931933  0.61732557  0.99580333    -0.10900
H577        H  0.27137720  0.66602675  0.41649044     0.08800
H578        H  0.27072963  0.66529947  0.07657288     0.06400
H579        H  0.22747353  0.59837949  0.99545277     0.06200
N580        N  0.26792723  0.48850980  0.35534200    -0.27200
N581        N  0.26676320  0.97785457  0.33083414    -0.35000
C582        C  0.26570691  0.96845560  0.36314746     0.01200
C583        C  0.26622182  0.97311092  0.41113767     0.07200
C584        C  0.26770184  0.48602047  0.40445987    -0.05900
H585        H  0.26395525  0.95830135  0.35227112     0.07900
H586        H  0.26718892  0.49169558  0.43347109     0.09100
Cu587      Cu  0.26518519  0.97533074  0.25408491     0.44200
Cu588      Cu  0.26731107  0.50333182  0.32143766     0.42000
Cu589      Cu  0.26693099  0.50275071  0.18600515     0.43900
N590        N  0.26600238  0.97698116  0.17725930    -0.34600
N591        N  0.26740191  0.48786789  0.15178858    -0.28800
C592        C  0.26705860  0.48532191  0.10265901    -0.04900
C593        C  0.26515029  0.97201137  0.09687339     0.07300
C594        C  0.26464416  0.96731940  0.14481876     0.01100
H595        H  0.26661755  0.49109831  0.07379280     0.08700
H596        H  0.26287374  0.95713799  0.15553826     0.07800
N597        N  0.26452164  0.51475934  0.22853128    -0.36000
N598        N  0.26489662  0.51523153  0.27789940    -0.28200
C599        C  0.26268529  0.52361888  0.29368591    -0.03400
C600        C  0.26071651  0.52854033  0.25230548     0.05200
C601        C  0.26192834  0.52268732  0.21168577     0.03300
H602        H  0.26212842  0.52558902  0.33240779     0.08400
H603        H  0.26084814  0.52395607  0.17272143     0.07200
C604        C  0.26104847  0.96212103  0.04933599     0.03200
C605        C  0.26937002  0.97490099  0.00401264    -0.12900
C606        C  0.26182509  0.96286940  0.45841362     0.00700
C607        C  0.24638913  0.93821323  0.45854742    -0.11400
C608        C  0.23793678  0.92523526  0.00303900     0.03200
C609        C  0.24565736  0.93749382  0.04849062    -0.10900
H610        H  0.28098112  0.49390176  0.00369934     0.08800
H611        H  0.23818929  0.92699749  0.42383324     0.06400
H612        H  0.23711627  0.92590253  0.08287828     0.06200
C613        C  0.19350772  0.85727627  0.00064415     0.80300
N614        N  0.16347313  0.83302911  0.00014630    -0.78000
C615        C  0.15826352  0.83914104  0.00032256     0.82800
N616        N  0.18283165  0.86915325  0.00153757    -0.77900
C617        C  0.21265943  0.89336020  0.00223046     0.82900
N618        N  0.21819255  0.88755974  0.00152363    -0.79600
N619        N  0.20945494  0.82310972  0.14866526    -0.27200
N620        N  0.20369191  0.82682994  0.17353795    -0.35000
C621        C  0.20053802  0.83222878  0.14125886     0.01200
C622        C  0.20451317  0.83198189  0.09323638     0.07200
C623        C  0.21010039  0.82605221  0.09963995    -0.05900
H624        H  0.19604660  0.83638595  0.15240663     0.07900
H625        H  0.21465476  0.82427792  0.07109133     0.09100
Cu626      Cu  0.20135006  0.82550583  0.25018444     0.44200
Cu627      Cu  0.21662183  0.81462054  0.18279067     0.42000
Cu628      Cu  0.21195427  0.80999911  0.31778913     0.43900
N629        N  0.20178819  0.82494819  0.32690334    -0.34600
N630        N  0.20571025  0.81939908  0.35189457    -0.28800
C631        C  0.20611431  0.82209158  0.40095885    -0.04900
C632        C  0.20232343  0.82979682  0.40725059     0.07300
C633        C  0.19959997  0.83129541  0.35913870     0.01100
H634        H  0.20947295  0.81912559  0.42961927     0.08700
H635        H  0.19700011  0.83731735  0.34789830     0.07800
N636        N  0.21951620  0.80301421  0.27496738    -0.36000
N637        N  0.22148821  0.80497045  0.22569722    -0.28200
C638        C  0.22699937  0.79985707  0.20946695    -0.03400
C639        C  0.22856567  0.79439314  0.25038716     0.05200
C640        C  0.22369375  0.79657657  0.29126983     0.03300
H641        H  0.22978076  0.80019346  0.17070422     0.08400
H642        H  0.22359563  0.79405831  0.33008946     0.07200
C643        C  0.20293144  0.83674657  0.45466991     0.03200
C644        C  0.19762505  0.84318050  0.45500582    -0.12900
C645        C  0.19918281  0.85065860  0.00049558     0.00700
C646        C  0.19886679  0.84445255  0.04541204    -0.11400
C647        C  0.20399733  0.83784465  0.04570806     0.03200
C648        C  0.20932495  0.83742511  0.50006443    -0.10900
H649        H  0.19229595  0.84249769  0.42078657     0.08800
H650        H  0.19474805  0.84497289  0.07986804     0.06400
H651        H  0.21300320  0.83213731  0.50034048     0.06200
N652        N  0.27811605  0.74759724  0.35151906    -0.27200
N653        N  0.28469630  0.74472044  0.32655793    -0.35000
C654        C  0.29166805  0.74318903  0.35885200     0.01200
C655        C  0.28949753  0.74524954  0.40694687     0.07200
C656        C  0.28075631  0.74797048  0.40061603    -0.05900
H657        H  0.29862833  0.74155264  0.34770542     0.07900
H658        H  0.27697628  0.75050469  0.42930960     0.09100
Cu659      Cu  0.28588841  0.74491635  0.24981560     0.44200
Cu660      Cu  0.26775230  0.75285819  0.31734206     0.42000
Cu661      Cu  0.27412199  0.75931988  0.18252852     0.43900
N662        N  0.28818425  0.74825749  0.17322411    -0.34600
N663        N  0.28403808  0.75360710  0.14840669    -0.28800
C664        C  0.28736261  0.75466841  0.09939812    -0.04900
C665        C  0.29396244  0.74975958  0.09293016     0.07300
C666        C  0.29426156  0.74580461  0.14091015     0.01100
H667        H  0.28506703  0.75872054  0.07086979     0.08700
H668        H  0.29864359  0.74153244  0.15197672     0.07800
N669        N  0.26430821  0.76400935  0.22542155    -0.36000
N670        N  0.26174411  0.76141075  0.27461509    -0.28200
C671        C  0.25546030  0.76573668  0.29097300    -0.03400
C672        C  0.25398679  0.77133715  0.25021319     0.05200
C673        C  0.25971804  0.77005072  0.20929491     0.03300
H674        H  0.25237847  0.76505917  0.32974884     0.08400
H675        H  0.26040962  0.77319771  0.17058566     0.07200
C676        C  0.29663515  0.74609100  0.45442223     0.03200
C677        C  0.29888311  0.75405849  0.99971069    -0.12900
C678        C  0.29945705  0.74890922  0.04527416     0.00700
C679        C  0.30511998  0.74283364  0.04473635    -0.11400
C680        C  0.31019437  0.74203788  0.99961337     0.03200
C681        C  0.30211385  0.73983257  0.45513452    -0.10900
H682        H  0.29455635  0.75869709  0.99976477     0.08800
H683        H  0.30559741  0.73865481  0.07914165     0.06400
H684        H  0.30063064  0.73369188  0.42114311     0.06200
C685        C  0.31590484  0.73545524  0.99956224     0.80300
N686        N  0.34590776  0.75963833  0.00087872    -0.78000
C687        C  0.35099585  0.75339917  0.00100955     0.82800
N688        N  0.32635533  0.72335348  0.99933976    -0.77900
C689        C  0.29658671  0.69924325  0.99780941     0.82900
N690        N  0.29117609  0.70516040  0.99813565    -0.79600
C691        C  0.21249240  0.75986872  0.26882792    -0.01700
C692        C  0.23506839  0.78848842  0.25048203     0.07900
C693        C  0.26393326  0.81150138  0.23220367    -0.01900
C694        C  0.27012831  0.80593752  0.23214257    -0.01900
C695        C  0.24751575  0.77727670  0.25035146     0.08100
C696        C  0.21866635  0.75428127  0.26870984    -0.02100
Br697      Br  0.18679561  0.71432914  0.29148058    -0.00600
Br698      Br  0.17236289  0.72755008  0.29204854    -0.00700
Br699      Br  0.31037994  0.83840118  0.20929259    -0.00600
Br700      Br  0.29579356  0.85144796  0.20942650    -0.00600
C701        C  0.27900665  0.57606649  0.26621240    -0.01700
C702        C  0.25102928  0.55466260  0.24849232     0.07900
C703        C  0.22620011  0.52462015  0.23226055    -0.01900
C704        C  0.22929185  0.51601347  0.23382689    -0.01900
C705        C  0.25728728  0.53743173  0.25147568     0.08100
C706        C  0.28209943  0.56746001  0.26778067    -0.02100
Br707      Br  0.32086060  0.59730951  0.29052753    -0.00600
Br708      Br  0.31370187  0.61776299  0.28627162    -0.00700
Br709      Br  0.19448916  0.97407232  0.21396157    -0.00600
Br710      Br  0.18758529  0.99476915  0.20985825    -0.00600
C711        C  0.48466922  0.76950747  0.22470354    -0.01700
C712        C  0.01111818  0.79078472  0.25217103     0.07900
C713        C  0.02880719  0.81514037  0.27925039    -0.01900
C714        C  0.02018492  0.81822109  0.27870032    -0.01900
C715        C  0.49378170  0.79699071  0.25114110     0.08100
C716        C  0.47605190  0.77259422  0.22414417    -0.02100
Br717      Br  0.43885314  0.74220972  0.18833147    -0.00600
Br718      Br  0.45908076  0.73496172  0.18968346    -0.00700
Br719      Br  0.04573355  0.85272055  0.31385737    -0.00600
Br720      Br  0.06597031  0.84549522  0.31516197    -0.00600
N721        N  0.06009371  0.78000937  0.85212233    -0.27200
N722        N  0.07190896  0.78269112  0.82726567    -0.35000
C723        C  0.08261065  0.78521245  0.85975680     0.01200
C724        C  0.07736939  0.78410879  0.90768924     0.07200
C725        C  0.06291484  0.78067129  0.90127317    -0.05900
H726        H  0.09417627  0.78852493  0.84901414     0.07900
H727        H  0.05646667  0.78041696  0.93004325     0.09100
Cu728      Cu  0.07521950  0.78514787  0.75054269     0.44200
Cu729      Cu  0.04392820  0.77915749  0.81820297     0.42000
Cu730      Cu  0.04976429  0.78534358  0.68343624     0.43900
N731        N  0.07480396  0.78578294  0.67373320    -0.34600
N732        N  0.06489020  0.78519041  0.64897936    -0.28800
C733        C  0.06773632  0.78592168  0.59980724    -0.04900
C734        C  0.08023848  0.78723565  0.59333063     0.07300
C735        C  0.08446102  0.78717415  0.64113871     0.01100
H736        H  0.06224756  0.78668935  0.57103654     0.08700
H737        H  0.09411637  0.78835657  0.65163870     0.07800
N738        N  0.03620770  0.78602496  0.72639021    -0.36000
N739        N  0.03355259  0.78325280  0.77553730    -0.28200
C740        C  0.02449998  0.78472385  0.79182560    -0.03400
C741        C  0.02142659  0.78873943  0.75100938     0.05200
C742        C  0.02908380  0.78948964  0.71019558     0.03300
H743        H  0.02062939  0.78318740  0.83056139     0.08400
H744        H  0.02965628  0.79256586  0.67153515     0.07200
C745        C  0.08852257  0.78966495  0.95514673     0.03200
C746        C  0.07625461  0.78170922  0.50071707    -0.12900
C747        C  0.08987920  0.79109325  0.54580686     0.00700
C748        C  0.11487666  0.80701837  0.54475493    -0.11400
C749        C  0.12672855  0.81426637  0.49925661     0.03200
C750        C  0.11348163  0.80549413  0.95539443    -0.10900
H751        H  0.05704637  0.76950652  0.50141470     0.08800
H752        H  0.12691448  0.81615084  0.57899876     0.06400
H753        H  0.12450858  0.81340303  0.92070869     0.06200
N754        N  0.44910528  0.81222918  0.64944448    -0.27200
N755        N  0.43821602  0.81053934  0.67448822    -0.35000
C756        C  0.42759228  0.80814958  0.64220489     0.01200
C757        C  0.43194996  0.80833827  0.59420898     0.07200
C758        C  0.44579044  0.81108676  0.60035704    -0.05900
H759        H  0.41662649  0.80549535  0.65314037     0.07900
H760        H  0.45141074  0.81048263  0.57149139     0.09100
Cu761      Cu  0.43574848  0.80890328  0.75122740     0.44200
Cu762      Cu  0.46446046  0.81218589  0.68322085     0.42000
Cu763      Cu  0.45888547  0.80616440  0.81806399     0.43900
N764        N  0.43564233  0.80764260  0.82794027    -0.34600
N765        N  0.44458355  0.80718850  0.85264483    -0.28800
C766        C  0.44125799  0.80595010  0.90179569    -0.04900
C767        C  0.42945990  0.80539831  0.90825885     0.07300
C768        C  0.42616446  0.80644833  0.86050133     0.01100
H769        H  0.44586695  0.80425417  0.93051117     0.08700
H770        H  0.41715544  0.80596348  0.84998266     0.07800
N771        N  0.47163406  0.80467263  0.77476656    -0.36000
N772        N  0.47417094  0.80735544  0.72560338    -0.28200
C773        C  0.48282648  0.80548218  0.70912015    -0.03400
C774        C  0.48577789  0.80131107  0.74982187     0.05200
C775        C  0.47844385  0.80087207  0.79076863     0.03300
H776        H  0.48664794  0.80699391  0.67034787     0.08400
H777        H  0.47799879  0.79790367  0.82941727     0.07200
C778        C  0.41944214  0.80118228  0.95558111     0.03200
C779        C  0.43215525  0.80952641  0.00103696    -0.12900
C780        C  0.42050752  0.80254654  0.54701334     0.00700
C781        C  0.39565850  0.78687201  0.54723188    -0.11400
C782        C  0.38258472  0.77819635  0.00110469     0.03200
C783        C  0.39492457  0.78590429  0.95594245    -0.10900
H784        H  0.45101070  0.82125708  0.00083481     0.08800
H785        H  0.38492128  0.77924751  0.58212902     0.06400
H786        H  0.38352566  0.77750995  0.92133609     0.06200
N787        N  0.24073480  0.60392087  0.64402751    -0.27200
N788        N  0.24157879  0.61404601  0.66899606    -0.35000
C789        C  0.24252742  0.62333393  0.63662321     0.01200
C790        C  0.24220942  0.61884043  0.58867025     0.07200
C791        C  0.24096898  0.60638566  0.59488380    -0.05900
H792        H  0.24412107  0.63334859  0.64742612     0.07900
H793        H  0.24180794  0.60100401  0.56594078     0.09100
Cu794      Cu  0.24307109  0.61651317  0.74575273     0.44200
Cu795      Cu  0.24196447  0.58970212  0.67803195     0.42000
Cu796      Cu  0.24186896  0.58983505  0.81336386     0.43900
N797        N  0.24247924  0.61506773  0.82258934    -0.34600
N798        N  0.24136055  0.60468695  0.84750056    -0.28800
C799        C  0.24185374  0.60735964  0.89663133    -0.04900
C800        C  0.24355453  0.62023191  0.90297445     0.07300
C801        C  0.24392736  0.62480921  0.85504822     0.01100
H802        H  0.24240826  0.60168390  0.92547038     0.08700
H803        H  0.24566518  0.63496313  0.84435978     0.07800
N804        N  0.24463629  0.57816457  0.77089258    -0.36000
N805        N  0.24449566  0.57791952  0.72152479    -0.28200
C806        C  0.24685439  0.56967730  0.70571783    -0.03400
C807        C  0.24866885  0.56460593  0.74709052     0.05200
C808        C  0.24721934  0.57022593  0.78772924     0.03300
H809        H  0.24754590  0.56784047  0.66699217     0.08400
H810        H  0.24808412  0.56874660  0.82669682     0.07200
C811        C  0.24776776  0.63020972  0.95050681     0.03200
C812        C  0.26339148  0.65501020  0.95138597    -0.12900
C813        C  0.27088138  0.66700276  0.49632095     0.00700
C814        C  0.26241019  0.65401200  0.54131549    -0.11400
C815        C  0.24673708  0.62918396  0.54140695     0.01700
C816        C  0.23870652  0.61679091  0.49573153    -0.10900
H817        H  0.27202545  0.66666951  0.91701367     0.08800
H818        H  0.27066308  0.66525220  0.57605572     0.06400
H819        H  0.22676998  0.59777574  0.49557040     0.06200
N820        N  0.26789918  0.48855493  0.85522632    -0.27200
N821        N  0.26704534  0.97822186  0.83078555    -0.35000
C822        C  0.26573094  0.96857927  0.86304417     0.01200
C823        C  0.26619956  0.97317969  0.91104479     0.07200
C824        C  0.26759492  0.48600413  0.90435819    -0.05900
H825        H  0.26386463  0.95832455  0.85210184     0.07900
H826        H  0.26708403  0.49168840  0.93333900     0.09100
Cu827      Cu  0.26567943  0.97587846  0.75408005     0.44200
Cu828      Cu  0.26745920  0.50353084  0.82120255     0.42000
Cu829      Cu  0.26741680  0.50319190  0.68576426     0.43900
N830        N  0.26676306  0.97771281  0.67729613    -0.34600
N831        N  0.26778360  0.48819404  0.65167662    -0.28800
C832        C  0.26747042  0.48565304  0.60256908    -0.04900
C833        C  0.26589230  0.97268043  0.59696928     0.07300
C834        C  0.26529131  0.96792865  0.64496279     0.01100
H835        H  0.26712045  0.49150238  0.57364448     0.08700
H836        H  0.26331325  0.95756495  0.65579257     0.07800
N837        N  0.26505951  0.51527895  0.72811961    -0.36000
N838        N  0.26530450  0.51565372  0.77748906    -0.28200
C839        C  0.26316741  0.52412125  0.79315399    -0.03400
C840        C  0.26138416  0.52920010  0.75169600     0.05200
C841        C  0.26262705  0.52335379  0.71115319     0.03300
H842        H  0.26253540  0.52604030  0.83184762     0.08400
H843        H  0.26167499  0.52472506  0.67215871     0.07200
C844        C  0.26155637  0.96255423  0.54952466     0.03200
C845        C  0.26978784  0.97521825  0.50407987    -0.12900
C846        C  0.26164337  0.96277613  0.95823714     0.00700
C847        C  0.24633350  0.93821350  0.95814077    -0.11400
C848        C  0.23806939  0.92533759  0.50357121     0.03200
C849        C  0.24600692  0.93780407  0.54890823    -0.10900
H850        H  0.28132013  0.49411548  0.50367672     0.08800
H851        H  0.23828059  0.92713643  0.92334006     0.06400
H852        H  0.23753735  0.92630435  0.58339013     0.06200
C853        C  0.19370796  0.85744193  0.49950161     0.80300
N854        N  0.16369943  0.83321764  0.49729976    -0.78000
C855        C  0.15843213  0.83927071  0.49837797     0.82800
N856        N  0.18295396  0.86924213  0.50114341    -0.77900
C857        C  0.21277424  0.89344703  0.50295088     0.82900
N858        N  0.21832573  0.88766461  0.50243457    -0.79600
N859        N  0.22788715  0.84167744  0.64832418    -0.27200
N860        N  0.22128942  0.84454747  0.67320697    -0.35000
C861        C  0.21473313  0.84649502  0.64083708     0.01200
C862        C  0.21722869  0.84475060  0.59277207     0.07200
C863        C  0.22567615  0.84172901  0.59919190    -0.05900
H864        H  0.20800523  0.84837869  0.65189149     0.07900
H865        H  0.22971372  0.83945240  0.57051168     0.09100
Cu866      Cu  0.22019685  0.84449878  0.74992027     0.44200
Cu867      Cu  0.23814470  0.83631570  0.68262031     0.42000
Cu868      Cu  0.23362680  0.83177741  0.81749625     0.43900
N869        N  0.21923228  0.84250931  0.82660337    -0.34600
N870        N  0.22410349  0.83789112  0.85148887    -0.28800
C871        C  0.22153869  0.83759182  0.90055554    -0.04900
C872        C  0.21465688  0.84221217  0.90699698     0.07300
C873        C  0.21342544  0.84523378  0.85895077     0.01100
H874        H  0.22449302  0.83420378  0.92914053     0.08700
H875        H  0.20843149  0.84889027  0.84787193     0.07800
N876        N  0.24243078  0.82604885  0.77475910    -0.36000
N877        N  0.24434483  0.82796749  0.72548829    -0.28200
C878        C  0.25018412  0.82318593  0.70922207    -0.03400
C879        C  0.25200850  0.81796535  0.75012735     0.05200
C880        C  0.24696807  0.81996610  0.79103577     0.03300
H881        H  0.25278653  0.82335624  0.67042646     0.08400
H882        H  0.24677169  0.81733919  0.82983295     0.07200
C883        C  0.20934656  0.84323227  0.95468005     0.03200
C884        C  0.20450203  0.85011892  0.95537968    -0.12900
C885        C  0.19940332  0.85083964  0.49959830     0.00700
C886        C  0.20619149  0.85175304  0.54441627    -0.11400
C887        C  0.21094007  0.84477188  0.54518167     0.03200
C888        C  0.20899652  0.83714910  0.00006954    -0.10900
H889        H  0.20470666  0.85497947  0.92108178     0.08800
H890        H  0.20752366  0.85772483  0.57850306     0.06400
H891        H  0.21257860  0.83177070  0.99985895     0.06200
N892        N  0.29631594  0.76594848  0.85085318    -0.27200
N893        N  0.30213461  0.76228495  0.82598643    -0.35000
C894        C  0.30583514  0.75743656  0.85833445     0.01200
C895        C  0.30219697  0.75802816  0.90638735     0.07200
C896        C  0.29619113  0.76353523  0.89992047    -0.05900
H897        H  0.31064537  0.75359613  0.84724382     0.07900
H898        H  0.29186967  0.76554759  0.92847189     0.09100
Cu899      Cu  0.30448407  0.76364670  0.74930912     0.44200
Cu900      Cu  0.28883581  0.77411439  0.81673725     0.42000
Cu901      Cu  0.29520659  0.78049578  0.68183873     0.43900
N902        N  0.30517648  0.76534935  0.67260175    -0.34600
N903        N  0.30182328  0.77146299  0.64762872    -0.28800
C904        C  0.30211240  0.76945616  0.59851300    -0.04900
C905        C  0.30576258  0.76161401  0.59219316     0.07300
C906        C  0.30768480  0.75932250  0.64031803     0.01100
H907        H  0.29930060  0.77295794  0.56979781     0.08700
H908        H  0.30984416  0.75286826  0.65149534     0.07800
N909        N  0.28680025  0.78662031  0.72482633    -0.36000
N910        N  0.28422340  0.78402786  0.77402180    -0.28200
C911        C  0.27840174  0.78881752  0.79038872    -0.03400
C912        C  0.27722184  0.79470059  0.74964368     0.05200
C913        C  0.28267139  0.79312095  0.70871268     0.03300
H914        H  0.27520781  0.78803625  0.82914188     0.08400
H915        H  0.28325281  0.79615015  0.66998068     0.07200
C916        C  0.30369359  0.75315949  0.95407126     0.03200
C917        C  0.29827884  0.75348646  0.49949045    -0.12900
C918        C  0.30545370  0.75495909  0.54473549     0.00700
C919        C  0.31158538  0.74935033  0.54430087    -0.11400
C920        C  0.30975038  0.74161127  0.49979094     0.03200
C921        C  0.30951542  0.74724066  0.95451998    -0.10900
H922        H  0.29386700  0.75804656  0.49936200     0.08800
H923        H  0.31745940  0.75059747  0.57844117     0.06400
H924        H  0.31334455  0.74642332  0.92004729     0.06200
C925        C  0.31550888  0.73507053  0.50001608     0.80300
N926        N  0.34546934  0.75922027  0.50316881    -0.78000
C927        C  0.35061903  0.75304110  0.50287337     0.82800
N928        N  0.32603414  0.72303984  0.49994304    -0.77900
C929        C  0.29629059  0.69894500  0.49705972     0.82900
N930        N  0.29086926  0.70485071  0.49677156    -0.79600
C931        C  0.23584137  0.78335493  0.76846109    -0.01700
C932        C  0.25844030  0.81198986  0.75012175     0.07900
C933        C  0.28725364  0.83494390  0.73170605    -0.01900
C934        C  0.29339253  0.82932365  0.73152927    -0.01900
C935        C  0.27077474  0.80066475  0.74976782     0.08100
C936        C  0.24195472  0.77770694  0.76821652    -0.02100
Br937      Br  0.21002415  0.73771153  0.79091934    -0.00600
Br938      Br  0.19576377  0.75109610  0.79187177    -0.00700
Br939      Br  0.33357132  0.86170175  0.70846710    -0.00600
Br940      Br  0.31912151  0.87489186  0.70892009    -0.00600
C941        C  0.27990661  0.57692649  0.76573475    -0.01700
C942        C  0.25200557  0.55562621  0.74789352     0.07900
C943        C  0.22719204  0.52562563  0.73135940    -0.01900
C944        C  0.23019651  0.51693327  0.73285638    -0.01900
C945        C  0.25808519  0.53821919  0.75075294     0.08100
C946        C  0.28290477  0.56822774  0.76726374    -0.02100
Br947      Br  0.32155580  0.59793280  0.79023850    -0.00600
Br948      Br  0.31464882  0.61862904  0.78595060    -0.00700
Br949      Br  0.19553312  0.97500011  0.71358818    -0.00600
Br950      Br  0.18833212  0.99540742  0.70933637    -0.00600
C951        C  0.48584980  0.77067652  0.72331669    -0.01700
C952        C  0.01225526  0.79190368  0.75085029     0.07900
C953        C  0.02999179  0.81629966  0.77786124    -0.01900
C954        C  0.02138730  0.81939797  0.77733950    -0.01900
C955        C  0.49496603  0.79815950  0.74984264     0.08100
C956        C  0.47725602  0.77378829  0.72275653    -0.02100
Br957      Br  0.44012396  0.74347381  0.68679725    -0.00600
Br958      Br  0.46029153  0.73616403  0.68820425    -0.00700
Br959      Br  0.04699702  0.85394249  0.81245508    -0.00600
Br960      Br  0.06720980  0.84669379  0.81360731    -0.00600
N961        N  0.55918727  0.27908289  0.35252800    -0.27200
N962        N  0.57080940  0.28157111  0.32753904    -0.35000
C963        C  0.58161469  0.28417874  0.35988054     0.01200
C964        C  0.57665550  0.28334608  0.40786833     0.07200
C965        C  0.56223695  0.27995541  0.40164262    -0.05900
H966        H  0.59313843  0.28745453  0.34898647     0.07900
H967        H  0.55604728  0.27995838  0.43049512     0.09100
Cu968      Cu  0.57397181  0.28393186  0.25085165     0.44200
Cu969      Cu  0.54315008  0.27838289  0.31870175     0.42000
Cu970      Cu  0.54877516  0.28442962  0.18384540     0.43900
N971        N  0.57379959  0.28485608  0.17411366    -0.34600
N972        N  0.56402222  0.28440988  0.14936018    -0.28800
C973        C  0.56715406  0.28544471  0.10020307    -0.04900
C974        C  0.57969583  0.28679999  0.09376612     0.07300
C975        C  0.58363760  0.28644066  0.14156067     0.01100
H976        H  0.56185671  0.28641533  0.07144261     0.08700
H977        H  0.59325960  0.28758939  0.15209619     0.07800
N978        N  0.53531530  0.28518156  0.22700037    -0.36000
N979        N  0.53276193  0.28248813  0.27616082    -0.28200
C980        C  0.52377556  0.28401992  0.29256610    -0.03400
C981        C  0.52064076  0.28799356  0.25181457     0.05200
C982        C  0.52819179  0.28865483  0.21091799     0.03300
H983        H  0.51998326  0.28254409  0.33133562     0.08400
H984        H  0.52869448  0.29167881  0.17227367     0.07200
C985        C  0.58821164  0.28930844  0.45513021     0.03200
C986        C  0.57642535  0.28202674  0.00105993    -0.12900
C987        C  0.58967856  0.29101478  0.04635762     0.00700
C988        C  0.61463515  0.30688124  0.04569283    -0.11400
C989        C  0.62681667  0.31447245  0.00037886     0.03200
C990        C  0.61330570  0.30531755  0.45495084    -0.10900
H991        H  0.55723916  0.26985465  0.00148055     0.08800
H992        H  0.62640495  0.31572732  0.08012501     0.06400
H993        H  0.62409623  0.31300646  0.42007761     0.06200
N994        N  0.94821495  0.31127744  0.14936747    -0.27200
N995        N  0.93697482  0.30922550  0.17426359    -0.35000
C996        C  0.92638685  0.30684124  0.14181752     0.01200
C997        C  0.93113578  0.30741289  0.09388323     0.07200
C998        C  0.94515487  0.31036650  0.10023353    -0.05900
H999        H  0.91525205  0.30400963  0.15259168     0.07900
H1000       H  0.95114513  0.31013481  0.07144841     0.09100
Cu1001     Cu  0.93422041  0.30736833  0.25100849     0.44200
Cu1002     Cu  0.96388445  0.31158788  0.18324488     0.42000
Cu1003     Cu  0.95821931  0.30558404  0.31796289     0.43900
N1004       N  0.93438063  0.30642741  0.32777994    -0.34600
N1005       N  0.94369583  0.30637165  0.35248496    -0.28800
C1006       C  0.94061438  0.30538260  0.40165118    -0.04900
C1007       C  0.92858573  0.30457965  0.40815921     0.07300
C1008       C  0.92489007  0.30521327  0.36038810     0.01100
H1009       H  0.94557368  0.30404984  0.43037146     0.08700
H1010       H  0.91564136  0.30447294  0.34991031     0.07800
N1011       N  0.97113036  0.30422541  0.27497190    -0.36000
N1012       N  0.97371764  0.30691786  0.22581516    -0.28200
C1013       C  0.98239651  0.30505543  0.20951397    -0.03400
C1014       C  0.98530369  0.30087659  0.25034045     0.05200
C1015       C  0.97792701  0.30042708  0.29116298     0.03300
H1016       H  0.98620988  0.30652433  0.17077876     0.08400
H1017       H  0.97739877  0.29740718  0.32984447     0.07200
C1018       C  0.91879840  0.30057746  0.45561406     0.03200
C1019       C  0.93193623  0.30937822  0.50085910    -0.12900
C1020       C  0.92002347  0.30193544  0.04650147     0.00700
C1021       C  0.89519848  0.28628758  0.04633665    -0.11400
C1022       C  0.88202603  0.27758918  0.50175631     0.03200
C1023       C  0.89410519  0.28506323  0.45638384    -0.10900
H1024       H  0.95092736  0.32128948  0.50036940     0.08800
H1025       H  0.88420596  0.27840704  0.08105872     0.06400
H1026       H  0.88241079  0.27635027  0.42196887     0.06200
N1027       N  0.74067373  0.10358358  0.14451055    -0.27200
N1028       N  0.74155603  0.11374131  0.16950261    -0.35000
C1029       C  0.74266478  0.12318335  0.13717643     0.01200
C1030       C  0.74242120  0.11877086  0.08921234     0.07200
C1031       C  0.74105774  0.10619858  0.09537470    -0.05900
H1032       H  0.74426337  0.13319927  0.14803650     0.07900
H1033       H  0.74185476  0.10078091  0.06641531     0.09100
Cu1034     Cu  0.74277254  0.11596654  0.24622906     0.44200
Cu1035     Cu  0.74152505  0.08900138  0.17852818     0.42000
Cu1036     Cu  0.74108967  0.08889967  0.31394316     0.43900
N1037       N  0.74183313  0.11425155  0.32303324    -0.34600
N1038       N  0.74057301  0.10375303  0.34803073    -0.28800
C1039       C  0.74097658  0.10636850  0.39714177    -0.04900
C1040       C  0.74276581  0.11932739  0.40337157     0.07300
C1041       C  0.74327015  0.12399945  0.35539591     0.01100
H1042       H  0.74145248  0.10063319  0.42604486     0.08700
H1043       H  0.74514742  0.13427404  0.34460346     0.07800
N1044       N  0.74383729  0.07718301  0.27162979    -0.36000
N1045       N  0.74379582  0.07699762  0.22225990    -0.28200
C1046       C  0.74610941  0.06869888  0.20661921    -0.03400
C1047       C  0.74779591  0.06353376  0.24809809     0.05200
C1048       C  0.74631542  0.06915479  0.28862620     0.03300
H1049       H  0.74687612  0.06690485  0.16793394     0.08400
H1050       H  0.74709805  0.06762504  0.32762949     0.07200
C1051       C  0.74707417  0.12941672  0.45083474     0.03200
C1052       C  0.76269057  0.15421483  0.45153047    -0.12900
C1053       C  0.77080703  0.16677362  0.99711841     0.00700
C1054       C  0.76238727  0.15379195  0.04204428    -0.11400
C1055       C  0.74695924  0.12914457  0.04200119     0.01700
C1056       C  0.73913558  0.11693374  0.99626075    -0.10900
H1057       H  0.77122091  0.16576980  0.41708060     0.08800
H1058       H  0.77051243  0.16492486  0.07683183     0.06400
H1059       H  0.72737620  0.09805294  0.99599099     0.06200
N1060       N  0.76785836  0.98821702  0.35581320    -0.27200
N1061       N  0.76669622  0.47802103  0.33032796    -0.35000
C1062       C  0.76555810  0.46853880  0.36259529     0.01200
C1063       C  0.76611370  0.47321935  0.41060533     0.07200
C1064       C  0.76767436  0.98577831  0.40494418    -0.05900
H1065       H  0.76375323  0.45833933  0.35166835     0.07900
H1066       H  0.76709307  0.99139490  0.43393015     0.09100
Cu1067     Cu  0.76517359  0.47556275  0.25358709     0.44200
Cu1068     Cu  0.76704154  0.00284421  0.32184900     0.42000
Cu1069     Cu  0.76673651  0.00233902  0.18647807     0.43900
N1070       N  0.76611191  0.47731479  0.17677673    -0.34600
N1071       N  0.76720956  0.98745392  0.15229412    -0.28800
C1072       C  0.76685453  0.98490252  0.10316106    -0.04900
C1073       C  0.76530306  0.47237721  0.09639923     0.07300
C1074       C  0.76476650  0.46766231  0.14435514     0.01100
H1075       H  0.76640811  0.99067651  0.07430636     0.08700
H1076       H  0.76296233  0.45745164  0.15509974     0.07800
N1077       N  0.76427756  0.01430521  0.22897656    -0.36000
N1078       N  0.76460554  0.01472952  0.27834429    -0.28200
C1079       C  0.76239899  0.02312080  0.29414214    -0.03400
C1080       C  0.76048383  0.02809781  0.25276945     0.05200
C1081       C  0.76172218  0.02227131  0.21214062     0.03300
H1082       H  0.76183776  0.02508416  0.33286761     0.08400
H1083       H  0.76070828  0.02360594  0.17317582     0.07200
C1084       C  0.76116579  0.46244720  0.04888088     0.03200
C1085       C  0.76935399  0.47510835  0.00350616    -0.12900
C1086       C  0.76174920  0.46299573  0.45785872     0.00700
C1087       C  0.74643813  0.43843218  0.45795622    -0.11400
C1088       C  0.73809333  0.42556973  0.00272302     0.03200
C1089       C  0.74586385  0.43788599  0.04812424    -0.10900
H1090       H  0.78104771  0.99373048  0.00429243     0.08800
H1091       H  0.73828064  0.42724834  0.42323418     0.06400
H1092       H  0.73742208  0.42637909  0.08255275     0.06200
C1093       C  0.69388338  0.35776741  0.00048152     0.80300
N1094       N  0.66382254  0.33346614  0.99972383    -0.78000
C1095       C  0.65851753  0.33948191  0.99993458     0.82800
N1096       N  0.68302496  0.36946295  0.00121328    -0.77900
C1097       C  0.71288478  0.39373062  0.00205343     0.82900
N1098       N  0.71850980  0.38802020  0.00155988    -0.79600
N1099       N  0.71440072  0.32812903  0.14875115    -0.27200
N1100       N  0.70782508  0.33101739  0.17363553    -0.35000
C1101       C  0.70353673  0.33529556  0.14140963     0.01200
C1102       C  0.70760307  0.33516848  0.09339584     0.07200
C1103       C  0.71445824  0.33051097  0.09972724    -0.05900
H1104       H  0.69806625  0.33846309  0.15256941     0.07900
H1105       H  0.71946880  0.32921808  0.07113885     0.09100
Cu1106     Cu  0.70578907  0.32998624  0.25010177     0.44200
Cu1107     Cu  0.72315834  0.32122226  0.18277481     0.42000
Cu1108     Cu  0.71965223  0.31771483  0.31762530     0.43900
N1109       N  0.70670934  0.32991016  0.32661455    -0.34600
N1110       N  0.71186911  0.32559402  0.35157362    -0.28800
C1111       C  0.71177635  0.32781252  0.40061346    -0.04900
C1112       C  0.70630775  0.33386281  0.40689585     0.07300
C1113       C  0.70320222  0.33496771  0.35881856     0.01100
H1114       H  0.71579712  0.32550994  0.42924067     0.08700
H1115       H  0.69907963  0.33948873  0.34758966     0.07800
N1116       N  0.72746677  0.31098316  0.27487043    -0.36000
N1117       N  0.72897691  0.31249288  0.22556522    -0.28200
C1118       C  0.73439862  0.30729447  0.20927189    -0.03400
C1119       C  0.73638656  0.30223995  0.25020105     0.05200
C1120       C  0.73186507  0.30476275  0.29114899     0.03300
H1121       H  0.73668001  0.30714314  0.17045057     0.08400
H1122       H  0.73199071  0.30245960  0.32997457     0.07200
C1123       C  0.70506967  0.33900922  0.45442735     0.03200
C1124       C  0.70008508  0.34576173  0.45473789    -0.12900
C1125       C  0.69962298  0.35121463  0.00040444     0.00700
C1126       C  0.70083176  0.34653495  0.04555047    -0.11400
C1127       C  0.70576451  0.33973177  0.04585839     0.03200
C1128       C  0.70912296  0.33736095  0.50010318    -0.10900
H1129       H  0.69667275  0.34699032  0.42020768     0.08800
H1130       H  0.69799090  0.34832681  0.08013911     0.06400
H1131       H  0.71251090  0.33179340  0.50029486     0.06200
N1132       N  0.78420068  0.25369441  0.35108497    -0.27200
N1133       N  0.79104525  0.25108736  0.32615915    -0.35000
C1134       C  0.79711730  0.24862485  0.35842432     0.01200
C1135       C  0.79402244  0.24973509  0.40649406     0.07200
C1136       C  0.78575296  0.25294602  0.40017434    -0.05900
H1137       H  0.80372516  0.24662169  0.34729510     0.07900
H1138       H  0.78127073  0.25476352  0.42885895     0.09100
Cu1139     Cu  0.79265881  0.25170869  0.24965307     0.44200
Cu1140     Cu  0.77418677  0.25932112  0.31702037     0.42000
Cu1141     Cu  0.77952065  0.26471400  0.18224349     0.43900
N1142       N  0.79351144  0.25357449  0.17317008    -0.34600
N1143       N  0.78875559  0.25829967  0.14824016    -0.28800
C1144       C  0.79073790  0.25798236  0.09917851    -0.04900
C1145       C  0.79707437  0.25280216  0.09285434     0.07300
C1146       C  0.79864605  0.25015263  0.14092865     0.01100
H1147       H  0.78758907  0.26116278  0.07053803     0.08700
H1148       H  0.80310432  0.24596401  0.15210664     0.07800
N1149       N  0.77038606  0.27010163  0.22507663    -0.36000
N1150       N  0.76822479  0.26791901  0.27431721    -0.28200
C1151       C  0.76232497  0.27263272  0.29066914    -0.03400
C1152       C  0.76067522  0.27804682  0.24984738     0.05200
C1153       C  0.76590301  0.27624515  0.20890287     0.03300
H1154       H  0.75961286  0.27233393  0.32947778     0.08400
H1155       H  0.76632136  0.27910752  0.17014648     0.07200
C1156       C  0.79917075  0.24853632  0.45410380     0.03200
C1157       C  0.79903576  0.25409755  0.99956400    -0.12900
C1158       C  0.80093849  0.25028865  0.04521716     0.00700
C1159       C  0.80634940  0.24396137  0.04475747    -0.11400
C1160       C  0.80967995  0.24141542  0.99951422     0.03200
C1161       C  0.80444936  0.24207870  0.45470963    -0.10900
H1162       H  0.79517764  0.25919958  0.99957961     0.08800
H1163       H  0.80794625  0.24091148  0.07929762     0.06400
H1164       H  0.80460030  0.23757894  0.42033110     0.06200
C1165       C  0.81538424  0.23482694  0.99953343     0.80300
N1166       N  0.84539266  0.25903131  0.00117658    -0.78000
C1167       C  0.85053799  0.25285143  0.00137206     0.82800
N1168       N  0.82593583  0.22282550  0.99967531    -0.77900
C1169       C  0.79614949  0.19867969  0.99791827     0.82900
N1170       N  0.79068712  0.20454791  0.99792717    -0.79600
C1171       C  0.72006130  0.26753570  0.26932276    -0.01700
C1172       C  0.74258885  0.29603368  0.25019341     0.07900
C1173       C  0.77110363  0.31862171  0.23100472    -0.01900
C1174       C  0.77702584  0.31278417  0.23090162    -0.01900
C1175       C  0.75447901  0.28426245  0.24996103     0.08100
C1176       C  0.72595617  0.26166900  0.26914933    -0.02100
Br1177     Br  0.69410197  0.22184138  0.29295938    -0.00600
Br1178     Br  0.68033280  0.23571877  0.29366726    -0.00700
Br1179     Br  0.81684473  0.34471331  0.20679184    -0.00600
Br1180     Br  0.80288224  0.35838293  0.20698579    -0.00600
C1181       C  0.77898734  0.07580656  0.26692337    -0.01700
C1182       C  0.75108839  0.05451023  0.24907869     0.07900
C1183       C  0.72624597  0.02448238  0.23265492    -0.01900
C1184       C  0.72924403  0.01578341  0.23416279    -0.01900
C1185       C  0.75715619  0.03709017  0.25195821     0.08100
C1186       C  0.78198465  0.06710637  0.26844103    -0.02100
Br1187     Br  0.82065184  0.09682446  0.29133896    -0.00600
Br1188     Br  0.81371942  0.11749647  0.28720478    -0.00700
Br1189     Br  0.69452339  0.47424697  0.21393841    -0.00600
Br1190     Br  0.68741220  0.49474193  0.20965212    -0.00600
C1191       C  0.98508139  0.26995705  0.22423303    -0.01700
C1192       C  0.51149395  0.29118341  0.25175011     0.07900
C1193       C  0.52928328  0.31562163  0.27872649    -0.01900
C1194       C  0.52076560  0.31880915  0.27811471    -0.01900
C1195       C  0.99436459  0.29759711  0.25056057     0.08100
C1196       C  0.97656341  0.27314569  0.22360811    -0.02100
Br1197     Br  0.93939938  0.24282117  0.18777676    -0.00600
Br1198     Br  0.95941207  0.23535275  0.18925204    -0.00700
Br1199     Br  0.54643623  0.35340411  0.31316435    -0.00600
Br1200     Br  0.56644850  0.34594836  0.31455906    -0.00600
N1201       N  0.55958010  0.27947153  0.85245941    -0.27200
N1202       N  0.57136919  0.28213340  0.82754205    -0.35000
C1203       C  0.58216461  0.28474606  0.85996689     0.01200
C1204       C  0.57701862  0.28372964  0.90792487     0.07200
C1205       C  0.56251121  0.28023628  0.90159386    -0.05900
H1206       H  0.59376946  0.28810689  0.84915661     0.07900
H1207       H  0.55614046  0.28005619  0.93040157     0.09100
Cu1208     Cu  0.57464549  0.28458436  0.75083509     0.44200
Cu1209     Cu  0.54339274  0.27860475  0.81860069     0.42000
Cu1210     Cu  0.54911661  0.28472501  0.68382671     0.43900
N1211       N  0.57437054  0.28539581  0.67405940    -0.34600
N1212       N  0.56444921  0.28479875  0.64933264    -0.28800
C1213       C  0.56745770  0.28571213  0.60016234    -0.04900
C1214       C  0.58006892  0.28714496  0.59366820     0.07300
C1215       C  0.58418587  0.28696325  0.64145757     0.01100
H1216       H  0.56200350  0.28652248  0.57141802     0.08700
H1217       H  0.59388178  0.28818918  0.65194784     0.07800
N1218       N  0.53554844  0.28537701  0.72687659    -0.36000
N1219       N  0.53295251  0.28264967  0.77603035    -0.28200
C1220       C  0.52392667  0.28414358  0.79238881    -0.03400
C1221       C  0.52081065  0.28812803  0.75161011     0.05200
C1222       C  0.52841206  0.28883348  0.71074734     0.03300
H1223       H  0.52011211  0.28265282  0.83114807     0.08400
H1224       H  0.52895477  0.29189107  0.67209915     0.07200
C1225       C  0.58839066  0.28951517  0.95529688     0.03200
C1226       C  0.57642787  0.28199838  0.50099834    -0.12900
C1227       C  0.58988734  0.29120019  0.54617463     0.00700
C1228       C  0.61487558  0.30711077  0.54527260    -0.11400
C1229       C  0.62686885  0.31451193  0.49984291     0.03200
C1230       C  0.61346856  0.30550372  0.95535651    -0.10900
H1231       H  0.55722444  0.26980232  0.50158084     0.08800
H1232       H  0.62679695  0.31611388  0.57959261     0.06400
H1233       H  0.62440692  0.31333951  0.92058622     0.06200
N1234       N  0.94855833  0.31161432  0.64928916    -0.27200
N1235       N  0.93749088  0.30974081  0.67425778    -0.35000
C1236       C  0.92687159  0.30733847  0.64189731     0.01200
C1237       C  0.93141559  0.30770831  0.59393526     0.07200
C1238       C  0.94535605  0.31057109  0.60017777    -0.05900
H1239       H  0.91582020  0.30459436  0.65275618     0.07900
H1240       H  0.95116037  0.31015255  0.57135054     0.09100
Cu1241     Cu  0.93489778  0.30802325  0.75098769     0.44200
Cu1242     Cu  0.96410841  0.31179065  0.68312743     0.42000
Cu1243     Cu  0.95861683  0.30593852  0.81792808     0.43900
N1244       N  0.93499335  0.30700834  0.82772500    -0.34600
N1245       N  0.94418316  0.30682192  0.85245012    -0.28800
C1246       C  0.94099465  0.30572765  0.90160466    -0.04900
C1247       C  0.92902646  0.30499163  0.90806481     0.07300
C1248       C  0.92548436  0.30578025  0.86029151     0.01100
H1249       H  0.94581236  0.30425089  0.93033585     0.08700
H1250       H  0.91629486  0.30510130  0.84977436     0.07800
N1251       N  0.97139514  0.30445457  0.77483670    -0.36000
N1252       N  0.97391674  0.30708883  0.72567021    -0.28200
C1253       C  0.98254701  0.30517909  0.70932368    -0.03400
C1254       C  0.98548933  0.30102826  0.75012724     0.05200
C1255       C  0.97818251  0.30064351  0.79098462     0.03300
H1256       H  0.98631885  0.30661281  0.67057533     0.08400
H1257       H  0.97770933  0.29767319  0.82966551     0.07200
C1258       C  0.91908112  0.30083585  0.95543868     0.03200
C1259       C  0.93201926  0.30943162  0.00080084    -0.12900
C1260       C  0.92011370  0.30204908  0.54666436     0.00700
C1261       C  0.89526691  0.28637347  0.54673543    -0.11400
C1262       C  0.88216169  0.27771307  0.00123369     0.03200
C1263       C  0.89441788  0.28536265  0.95597821    -0.10900
H1264       H  0.95099008  0.32131502  0.00047065     0.08800
H1265       H  0.88441519  0.27862950  0.58156112     0.06400
H1266       H  0.88286734  0.27679660  0.92145789     0.06200
N1267       N  0.74068207  0.10365870  0.64439951    -0.27200
N1268       N  0.74158150  0.11382586  0.66944014    -0.35000
C1269       C  0.74258451  0.12317790  0.63714381     0.01200
C1270       C  0.74224512  0.11868593  0.58915633     0.07200
C1271       C  0.74094046  0.10616751  0.59527581    -0.05900
H1272       H  0.74419607  0.13320391  0.64802821     0.07900
H1273       H  0.74171817  0.10073866  0.56628364     0.09100
Cu1274     Cu  0.74298849  0.11619098  0.74619033     0.44200
Cu1275     Cu  0.74174422  0.08926568  0.67830220     0.42000
Cu1276     Cu  0.74161468  0.08937357  0.81371890     0.43900
N1277       N  0.74222435  0.11459680  0.82301044    -0.34600
N1278       N  0.74106721  0.10418257  0.84792952    -0.28800
C1279       C  0.74150780  0.10681075  0.89706157    -0.04900
C1280       C  0.74321075  0.11968713  0.90339058     0.07300
C1281       C  0.74363232  0.12430372  0.85545174     0.01100
H1282       H  0.74204002  0.10111628  0.92590951     0.08700
H1283       H  0.74540302  0.13448592  0.84473774     0.07800
N1284       N  0.74439483  0.07771747  0.77122145    -0.36000
N1285       N  0.74424786  0.07745986  0.72185104    -0.28200
C1286       C  0.74663782  0.06924435  0.70607901    -0.03400
C1287       C  0.74848337  0.06420933  0.74747530     0.05200
C1288       C  0.74701718  0.06981941  0.78808805     0.03300
H1289       H  0.74735510  0.06742578  0.66736171     0.08400
H1290       H  0.74791586  0.06837874  0.82706224     0.07200
C1291       C  0.74744228  0.12969156  0.95090616     0.03200
C1292       C  0.76295717  0.15441236  0.95169050    -0.12900
C1293       C  0.77064338  0.16666964  0.49691666     0.00700
C1294       C  0.76223340  0.15371255  0.54189162    -0.11400
C1295       C  0.74671321  0.12899672  0.54193238     0.01700
C1296       C  0.73876943  0.11667949  0.49623298    -0.10900
H1297       H  0.77149366  0.16598826  0.91727602     0.08800
H1298       H  0.77043625  0.16491241  0.57664656     0.06400
H1299       H  0.72693700  0.09774348  0.49603014     0.06200
N1300       N  0.76825917  0.98868984  0.85578771    -0.27200
N1301       N  0.76675169  0.47814728  0.83025897    -0.35000
C1302       C  0.76552251  0.46858796  0.86254948     0.01200
C1303       C  0.76600392  0.47320761  0.91053982     0.07200
C1304       C  0.76788978  0.98607034  0.90490906    -0.05900
H1305       H  0.76372174  0.45839107  0.85164012     0.07900
H1306       H  0.76737571  0.99174738  0.93390837     0.09100
Cu1307     Cu  0.76537595  0.47579097  0.75354467     0.44200
Cu1308     Cu  0.76790401  0.00375119  0.82183546     0.42000
Cu1309     Cu  0.76776898  0.00331669  0.68637526     0.43900
N1310       N  0.76645852  0.47763012  0.67675169    -0.34600
N1311       N  0.76812253  0.98831188  0.65223093    -0.28800
C1312       C  0.76776127  0.98572707  0.60312195    -0.04900
C1313       C  0.76566389  0.47266411  0.59642434     0.07300
C1314       C  0.76504379  0.46789711  0.64442296     0.01100
H1315       H  0.76739209  0.99155863  0.57419804     0.08700
H1316       H  0.76311196  0.45757590  0.65526020     0.07800
N1317       N  0.76538860  0.01538154  0.72873905    -0.36000
N1318       N  0.76568076  0.01580483  0.77810804    -0.28200
C1319       C  0.76349348  0.02422499  0.79376211    -0.03400
C1320       C  0.76162615  0.02921985  0.75229697     0.05200
C1321       C  0.76287211  0.02337423  0.71176343     0.03300
H1322       H  0.76286804  0.02615248  0.83245265     0.08400
H1323       H  0.76185292  0.02467837  0.67276874     0.07200
C1324       C  0.76144132  0.46263720  0.54896876     0.03200
C1325       C  0.76963790  0.47528171  0.50354315    -0.12900
C1326       C  0.76157609  0.46292497  0.95777369     0.00700
C1327       C  0.74634993  0.43842508  0.95777291    -0.11400
C1328       C  0.73817936  0.42559510  0.50296476     0.03200
C1329       C  0.74603448  0.43799556  0.54831635    -0.10900
H1330       H  0.78154372  0.99410237  0.50417852     0.08800
H1331       H  0.73825834  0.42730162  0.92301678     0.06400
H1332       H  0.73758985  0.42650539  0.58278581     0.06200
C1333       C  0.69388063  0.35773364  0.49974632     0.80300
N1334       N  0.66384480  0.33347147  0.49831836    -0.78000
C1335       C  0.65856629  0.33951291  0.49911524     0.82800
N1336       N  0.68308719  0.36949356  0.50115204    -0.77900
C1337       C  0.71292907  0.39373031  0.50237006     0.82900
N1338       N  0.71851358  0.38797967  0.50180131    -0.79600
N1339       N  0.72204155  0.33584476  0.64870355    -0.27200
N1340       N  0.71571163  0.33898579  0.67358588    -0.35000
C1341       C  0.71015580  0.34197030  0.64128977     0.01200
C1342       C  0.71308301  0.34067841  0.59323810     0.07200
C1343       C  0.72067347  0.33677176  0.59960516    -0.05900
H1344       H  0.70417784  0.34462355  0.65239588     0.07900
H1345       H  0.72494344  0.33472985  0.57094948     0.09100
Cu1346     Cu  0.71458456  0.33889219  0.75008596     0.44200
Cu1347     Cu  0.73153135  0.32968884  0.68284218     0.42000
Cu1348     Cu  0.72831072  0.32647251  0.81765965     0.43900
N1349       N  0.71472481  0.33802571  0.82659817    -0.34600
N1350       N  0.71977261  0.33359374  0.85153551    -0.28800
C1351       C  0.71829345  0.33441242  0.90060324    -0.04900
C1352       C  0.71195567  0.33958797  0.90693550     0.07300
C1353       C  0.70988724  0.34174440  0.85886129     0.01100
H1354       H  0.72168705  0.33147649  0.92923678     0.08700
H1355       H  0.70511914  0.34562379  0.84770441     0.07800
N1356       N  0.73619386  0.31980748  0.77497835    -0.36000
N1357       N  0.73759766  0.32120675  0.72566649    -0.28200
C1358       C  0.74297485  0.31596190  0.70939934    -0.03400
C1359       C  0.74503641  0.31098614  0.75035603     0.05200
C1360       C  0.74061313  0.31361091  0.79129176     0.03300
H1361       H  0.74514563  0.31569493  0.67057558     0.08400
H1362       H  0.74078727  0.31136143  0.83012732     0.07200
C1363       C  0.70811343  0.34210954  0.95458871     0.03200
C1364       C  0.70332435  0.34905213  0.95514411    -0.12900
C1365       C  0.69957715  0.35113602  0.49980450     0.00700
C1366       C  0.70395803  0.34964505  0.54500984    -0.11400
C1367       C  0.70868856  0.34264435  0.54559506     0.03200
C1368       C  0.70916627  0.33744148  0.00015164    -0.10900
H1369       H  0.70235475  0.35273231  0.92065806     0.08800
H1370       H  0.70355135  0.35387994  0.57945196     0.06400
H1371       H  0.71252109  0.33184296  0.00004070     0.06200
N1372       N  0.79160385  0.26117174  0.85088117    -0.27200
N1373       N  0.79867955  0.25879827  0.82599816    -0.35000
C1374       C  0.80355871  0.25511702  0.85824898     0.01200
C1375       C  0.79939050  0.25513509  0.90626866     0.07200
C1376       C  0.79181327  0.25905611  0.89991478    -0.05900
H1377       H  0.80968322  0.25261542  0.84712740     0.07900
H1378       H  0.78662385  0.26016129  0.92850743     0.09100
Cu1379     Cu  0.80111357  0.26026157  0.74953415     0.44200
Cu1380     Cu  0.78227967  0.26750402  0.81690736     0.42000
Cu1381     Cu  0.78779670  0.27308700  0.68214458     0.43900
N1382       N  0.80110794  0.26126462  0.67302056    -0.34600
N1383       N  0.79622071  0.26585500  0.64806442    -0.28800
C1384       C  0.79681879  0.26414077  0.59899284    -0.04900
C1385       C  0.80231346  0.25811483  0.59270131     0.07300
C1386       C  0.80492826  0.25652110  0.64080021     0.01100
H1387       H  0.79305613  0.26670003  0.57033791     0.08700
H1388       H  0.80878994  0.25174060  0.65202998     0.07800
N1389       N  0.77885979  0.27867353  0.72504723    -0.36000
N1390       N  0.77663261  0.27641845  0.77427977    -0.28200
C1391       C  0.77078178  0.28117747  0.79067923    -0.03400
C1392       C  0.76922044  0.28668785  0.74989931     0.05200
C1393       C  0.77446035  0.28490448  0.70892706     0.03300
H1394       H  0.76800571  0.28080650  0.82948995     0.08400
H1395       H  0.77490464  0.28780021  0.67018273     0.07200
C1396       C  0.80210751  0.25146215  0.95387854     0.03200
C1397       C  0.79889135  0.25399198  0.49953596    -0.12900
C1398       C  0.80368327  0.25309168  0.54516898     0.00700
C1399       C  0.80931882  0.24698555  0.54485288    -0.11400
C1400       C  0.80962995  0.24139815  0.49985755     0.03200
C1401       C  0.80753477  0.24515021  0.95427986    -0.10900
H1402       H  0.79495846  0.25902170  0.49934158     0.08800
H1403       H  0.81325824  0.24629227  0.57934969     0.06400
H1404       H  0.80998111  0.24295733  0.91969882     0.06200
C1405       C  0.81530470  0.23477781  0.50002836     0.80300
N1406       N  0.84528231  0.25893919  0.50236130    -0.78000
C1407       C  0.85040399  0.25273491  0.50216774     0.82800
N1408       N  0.82579242  0.22271145  0.49985273    -0.77900
C1409       C  0.79603018  0.19860175  0.49764607     0.82900
N1410       N  0.79061083  0.20451240  0.49756853    -0.79600
C1411       C  0.72869103  0.27626841  0.76958008    -0.01700
C1412       C  0.75120948  0.30475152  0.75037261     0.07900
C1413       C  0.77969936  0.32731037  0.73113138    -0.01900
C1414       C  0.78559699  0.32144881  0.73099699    -0.01900
C1415       C  0.76304653  0.29292691  0.75007266     0.08100
C1416       C  0.73455612  0.27037140  0.76936510    -0.02100
Br1417     Br  0.70270502  0.23055759  0.79328556    -0.00600
Br1418     Br  0.68902891  0.24452720  0.79414127    -0.00700
Br1419     Br  0.82540342  0.35336258  0.70686147    -0.00600
Br1420     Br  0.81148830  0.36707811  0.70712002    -0.00600
C1421       C  0.77990864  0.07674475  0.76605322    -0.01700
C1422       C  0.75192658  0.05533311  0.74833352     0.07900
C1423       C  0.72712928  0.02531600  0.73201205    -0.01900
C1424       C  0.73023744  0.01672447  0.73357223    -0.01900
C1425       C  0.75821084  0.03812555  0.75133348     0.08100
C1426       C  0.78300616  0.06814285  0.76766503    -0.02100
Br1427     Br  0.82174855  0.09798164  0.79053246    -0.00600
Br1428     Br  0.81461741  0.11845981  0.78599643    -0.00700
Br1429     Br  0.69548135  0.47524754  0.71260787    -0.00600
Br1430     Br  0.68853067  0.49589614  0.70848475    -0.00600
C1431       C  0.98526333  0.27010538  0.72397899    -0.01700
C1432       C  0.51167856  0.29133259  0.75150185     0.07900
C1433       C  0.52947000  0.31577281  0.77847061    -0.01900
C1434       C  0.52095234  0.31896025  0.77785974    -0.01900
C1435       C  0.99455741  0.29775557  0.75030612     0.08100
C1436       C  0.97675472  0.27330372  0.72334502    -0.02100
Br1437     Br  0.93960325  0.24299181  0.68748481    -0.00600
Br1438     Br  0.95958989  0.23549663  0.68900795    -0.00700
Br1439     Br  0.54662837  0.35355799  0.81291348    -0.00600
Br1440     Br  0.56663978  0.34610262  0.81429044    -0.00600
N1441       N  0.55872756  0.77853695  0.35243585    -0.27200
N1442       N  0.57019263  0.78086266  0.32737529    -0.35000
C1443       C  0.58099787  0.78345409  0.35964350     0.01200
C1444       C  0.57620226  0.78278023  0.40766383     0.07200
C1445       C  0.56187368  0.77949319  0.40152967    -0.05900
H1446       H  0.59245070  0.78665513  0.34867537     0.07900
H1447       H  0.55585181  0.77966557  0.43042010     0.09100
Cu1448     Cu  0.57326642  0.78317534  0.25068591     0.44200
Cu1449     Cu  0.54287347  0.77804471  0.31867272     0.42000
Cu1450     Cu  0.54859766  0.78427452  0.18379427     0.43900
N1451       N  0.57329260  0.78434527  0.17397634    -0.34600
N1452       N  0.56374047  0.78414496  0.14925040    -0.28800
C1453       C  0.56701473  0.78533473  0.10009518    -0.04900
C1454       C  0.57941527  0.78653659  0.09364558     0.07300
C1455       C  0.58312103  0.78592143  0.14142042     0.01100
H1456       H  0.56191482  0.78651664  0.07135613     0.08700
H1457       H  0.59258773  0.78690091  0.15194925     0.07800
N1458       N  0.53514218  0.78500844  0.22713222    -0.36000
N1459       N  0.53256558  0.78226031  0.27628735    -0.28200
C1460       C  0.52353561  0.78373739  0.29281534    -0.03400
C1461       C  0.52038808  0.78772503  0.25215586     0.05200
C1462       C  0.52798423  0.78845735  0.21118134     0.03300
H1463       H  0.51968504  0.78217660  0.33160392     0.08400
H1464       H  0.52846251  0.79148103  0.17256663     0.07200
C1465       C  0.58790135  0.78888006  0.45484862     0.03200
C1466       C  0.57646040  0.78210373  0.00089163    -0.12900
C1467       C  0.58949586  0.79084628  0.04628317     0.00700
C1468       C  0.61433479  0.80655375  0.04579373    -0.11400
C1469       C  0.62661815  0.81423173  0.00056860     0.03200
C1470       C  0.61300571  0.80489997  0.45451506    -0.10900
H1471       H  0.55736486  0.77005301  0.00118711     0.08800
H1472       H  0.62595188  0.81522472  0.08031342     0.06400
H1473       H  0.62367990  0.81246693  0.41957036     0.06200
N1474       N  0.94778858  0.81080348  0.14962759    -0.27200
N1475       N  0.93657566  0.80878886  0.17447340    -0.35000
C1476       C  0.92612940  0.80655054  0.14196895     0.01200
C1477       C  0.93094969  0.80718591  0.09405324     0.07200
C1478       C  0.94485250  0.81001346  0.10047812    -0.05900
H1479       H  0.91507495  0.80381246  0.15268491     0.07900
H1480       H  0.95087860  0.80981307  0.07172347     0.09100
Cu1481     Cu  0.93377647  0.80690701  0.25123510     0.44200
Cu1482     Cu  0.96334080  0.81099540  0.18355926     0.42000
Cu1483     Cu  0.95757156  0.80492728  0.31829075     0.43900
N1484       N  0.93402058  0.80607965  0.32803914    -0.34600
N1485       N  0.94327910  0.80596755  0.35277610    -0.28800
C1486       C  0.94034120  0.80514173  0.40194411    -0.04900
C1487       C  0.92846174  0.80450049  0.40842731     0.07300
C1488       C  0.92470131  0.80505604  0.36063456     0.01100
H1489       H  0.94530184  0.80381772  0.43069632     0.08700
H1490       H  0.91553649  0.80440517  0.35014195     0.07800
N1491       N  0.97044547  0.80351536  0.27536685    -0.36000
N1492       N  0.97308141  0.80624430  0.22621471    -0.28200
C1493       C  0.98178284  0.80440114  0.20997131    -0.03400
C1494       C  0.98465735  0.80019906  0.25082750     0.05200
C1495       C  0.97723398  0.79971221  0.29161048     0.03300
H1496       H  0.98565421  0.80591975  0.17125556     0.08400
H1497       H  0.97669400  0.79668994  0.33030416     0.07200
C1498       C  0.91886707  0.80071580  0.45590776     0.03200
C1499       C  0.93215596  0.80968058  0.50107231    -0.12900
C1500       C  0.92006849  0.80195423  0.04659091     0.00700
C1501       C  0.89538892  0.78650011  0.04624911    -0.11400
C1502       C  0.88225473  0.77790663  0.50225685     0.03200
C1503       C  0.89419058  0.78522245  0.45681750    -0.10900
H1504       H  0.95113439  0.82157483  0.50047088     0.08800
H1505       H  0.88432584  0.77856898  0.08089295     0.06400
H1506       H  0.88238710  0.77638980  0.42247177     0.06200
N1507       N  0.74049002  0.60359137  0.14401099    -0.27200
N1508       N  0.74144007  0.61380582  0.16904873    -0.35000
C1509       C  0.74266270  0.62336013  0.13676812     0.01200
C1510       C  0.74242623  0.61896448  0.08878969     0.07200
C1511       C  0.74094572  0.60628345  0.09489017    -0.05900
H1512       H  0.74434299  0.63344764  0.14767249     0.07900
H1513       H  0.74172492  0.60085459  0.06590721     0.09100
Cu1514     Cu  0.74262037  0.61598747  0.24576607     0.44200
Cu1515     Cu  0.74120727  0.58887554  0.17792076     0.42000
Cu1516     Cu  0.74082287  0.58882786  0.31335990     0.43900
N1517       N  0.74163300  0.61423083  0.32255654    -0.34600
N1518       N  0.74032670  0.60368788  0.34753274    -0.28800
C1519       C  0.74075963  0.60632430  0.39664947    -0.04900
C1520       C  0.74262427  0.61935141  0.40289842     0.07300
C1521       C  0.74313097  0.62403121  0.35493309     0.01100
H1522       H  0.74123297  0.60058364  0.42553914     0.08700
H1523       H  0.74507898  0.63437093  0.34415760     0.07800
N1524       N  0.74359322  0.57713796  0.27103588    -0.36000
N1525       N  0.74352081  0.57691909  0.22166646    -0.28200
C1526       C  0.74588222  0.56866580  0.20604112    -0.03400
C1527       C  0.74763403  0.56356887  0.24753294     0.05200
C1528       C  0.74614069  0.56917908  0.28804877     0.03300
H1529       H  0.74665138  0.56687085  0.16736033     0.08400
H1530       H  0.74697305  0.56770049  0.32705468     0.07200
C1531       C  0.74706031  0.62954997  0.45035234     0.03200
C1532       C  0.76282663  0.65446091  0.45100189    -0.12900
C1533       C  0.77117092  0.66727911  0.99689766     0.00700
C1534       C  0.76262127  0.65418344  0.04177239    -0.11400
C1535       C  0.74709655  0.62946416  0.04162961     0.01700
C1536       C  0.73930547  0.61729840  0.99584702    -0.10900
H1537       H  0.77137621  0.66602030  0.41653491     0.08800
H1538       H  0.77071602  0.66527560  0.07660199     0.06400
H1539       H  0.72746654  0.59835762  0.99550184     0.06200
N1540       N  0.76790113  0.48846728  0.35538914    -0.27200
N1541       N  0.76673341  0.97783918  0.33079086    -0.35000
C1542       C  0.76567030  0.96843329  0.36310060     0.01200
C1543       C  0.76619392  0.97309566  0.41109258     0.07200
C1544       C  0.76768764  0.48599027  0.40450830    -0.05900
H1545       H  0.76391200  0.95827333  0.35222021     0.07900
H1546       H  0.76717648  0.49166786  0.43351745     0.09100
Cu1547     Cu  0.76515823  0.97531905  0.25404199     0.44200
Cu1548     Cu  0.76726867  0.50327396  0.32148172     0.42000
Cu1549     Cu  0.76688765  0.50269174  0.18605937     0.43900
N1550       N  0.76599333  0.97698543  0.17721752    -0.34600
N1551       N  0.76735668  0.48780727  0.15184164    -0.28800
C1552       C  0.76701976  0.48526873  0.10271083    -0.04900
C1553       C  0.76515324  0.97202656  0.09683137     0.07300
C1554       C  0.76463909  0.96732738  0.14477729     0.01100
H1555       H  0.76658521  0.49105211  0.07384793     0.08700
H1556       H  0.76286420  0.95714181  0.15549795     0.07800
N1557       N  0.76447846  0.51470147  0.22857871    -0.36000
N1558       N  0.76485219  0.51517260  0.27794663    -0.28200
C1559       C  0.76264367  0.52356285  0.29373197    -0.03400
C1560       C  0.76067826  0.52848756  0.25235045     0.05200
C1561       C  0.76188902  0.52263312  0.21173183     0.03300
H1562       H  0.76208927  0.52553547  0.33245251     0.08400
H1563       H  0.76081272  0.52390540  0.17276573     0.07200
C1564       C  0.76105131  0.96213579  0.04929402     0.03200
C1565       C  0.76936111  0.97490576  0.00396692    -0.12900
C1566       C  0.76180440  0.96285995  0.45836831     0.00700
C1567       C  0.74638235  0.93821411  0.45850347    -0.11400
C1568       C  0.73794443  0.92525213  0.00300655     0.03200
C1569       C  0.74566955  0.93751561  0.04845417    -0.10900
H1570       H  0.78098178  0.49388859  0.00376324     0.08800
H1571       H  0.73818559  0.92699990  0.42379051     0.06400
H1572       H  0.73713671  0.92593093  0.08284525     0.06200
C1573       C  0.69351632  0.85729310  0.00067117     0.80300
N1574       N  0.66348190  0.83304603  0.00019076    -0.78000
C1575       C  0.65827205  0.83915756  0.00035902     0.82800
N1576       N  0.68284014  0.86916995  0.00154036    -0.77900
C1577       C  0.71266834  0.89337755  0.00221281     0.82900
N1578       N  0.71820179  0.88757724  0.00152252    -0.79600
N1579       N  0.70963478  0.82328993  0.14866528    -0.27200
N1580       N  0.70379442  0.82693115  0.17354113    -0.35000
C1581       C  0.70056975  0.83226145  0.14126976     0.01200
C1582       C  0.70457978  0.83205265  0.09324822     0.07200
C1583       C  0.71026096  0.82621653  0.09964336    -0.05900
H1584       H  0.69600799  0.83634778  0.15242253     0.07900
H1585       H  0.71487590  0.82450477  0.07109255     0.09100
Cu1586     Cu  0.70146954  0.82562079  0.25017651     0.44200
Cu1587     Cu  0.71693526  0.81493263  0.18277804     0.42000
Cu1588     Cu  0.71238785  0.81042368  0.31777108     0.43900
N1589       N  0.70198763  0.82514182  0.32688206    -0.34600
N1590       N  0.70602986  0.81971147  0.35187008    -0.28800
C1591       C  0.70643459  0.82240636  0.40093044    -0.04900
C1592       C  0.70251594  0.82998683  0.40722170     0.07300
C1593       C  0.69972131  0.83141378  0.35911337     0.01100
H1594       H  0.70987441  0.81952083  0.42958522     0.08700
H1595       H  0.69699775  0.83731471  0.34787078     0.07800
N1596       N  0.71996384  0.80345408  0.27494407    -0.36000
N1597       N  0.72188782  0.80536518  0.22566965    -0.28200
C1598       C  0.72738865  0.80024244  0.20942617    -0.03400
C1599       C  0.72899915  0.79482025  0.25034343     0.05200
C1600       C  0.72416394  0.79703806  0.29123759     0.03300
H1601       H  0.73012044  0.80053179  0.17065615     0.08400
H1602       H  0.72409275  0.79454461  0.33005673     0.07200
C1603       C  0.70303337  0.83685083  0.45464428     0.03200
C1604       C  0.69774900  0.84330680  0.45496835    -0.12900
C1605       C  0.69918789  0.85067204  0.00051969     0.00700
C1606       C  0.69891047  0.84450357  0.04544134    -0.11400
C1607       C  0.70401996  0.83787480  0.04572711     0.03200
C1608       C  0.70930192  0.83740692  0.50006594    -0.10900
H1609       H  0.69252278  0.84272601  0.42072286     0.08800
H1610       H  0.69484010  0.84507088  0.07990702     0.06400
H1611       H  0.71295800  0.83209779  0.50034831     0.06200
N1612       N  0.77847720  0.74795433  0.35148416    -0.27200
N1613       N  0.78508773  0.74510774  0.32653055    -0.35000
C1614       C  0.79201188  0.74352814  0.35882958     0.01200
C1615       C  0.78977467  0.74552174  0.40692129     0.07200
C1616       C  0.78104909  0.74825873  0.40058402    -0.05900
H1617       H  0.79896375  0.74188247  0.34769139     0.07900
H1618       H  0.77721471  0.75073818  0.42927595     0.09100
Cu1619     Cu  0.78631258  0.74533383  0.24980461     0.44200
Cu1620     Cu  0.76811785  0.75321927  0.31730650     0.42000
Cu1621     Cu  0.77441539  0.75960368  0.18250087     0.43900
N1622       N  0.78850939  0.74857330  0.17321819    -0.34600
N1623       N  0.78430746  0.75386616  0.14839168    -0.28800
C1624       C  0.78755027  0.75484404  0.09937742    -0.04900
C1625       C  0.79415480  0.74993972  0.09291915     0.07300
C1626       C  0.79454228  0.74607466  0.14090725     0.01100
H1627       H  0.78518899  0.75882932  0.07084128     0.08700
H1628       H  0.79895077  0.74182947  0.15198090     0.07800
N1629       N  0.76462887  0.76432223  0.22537772    -0.36000
N1630       N  0.76209462  0.76175580  0.27457490    -0.28200
C1631       C  0.75582953  0.76610116  0.29092522    -0.03400
C1632       C  0.75433568  0.77167931  0.25015524     0.05200
C1633       C  0.76003555  0.77035945  0.20923957     0.03300
H1634       H  0.75277581  0.76545365  0.32970354     0.08400
H1635       H  0.76070675  0.77348387  0.17052521     0.07200
C1636       C  0.79679862  0.74624813  0.45441251     0.03200
C1637       C  0.79897109  0.75413376  0.99970090    -0.12900
C1638       C  0.79957067  0.74900969  0.04526184     0.00700
C1639       C  0.80518900  0.74288984  0.04471829    -0.11400
C1640       C  0.81019073  0.74202228  0.99958442     0.03200
C1641       C  0.80225743  0.73997011  0.45512734    -0.10900
H1642       H  0.79470092  0.75882846  0.99976471     0.08800
H1643       H  0.80569016  0.73873454  0.07912783     0.06400
H1644       H  0.80085686  0.73391176  0.42111351     0.06200
C1645       C  0.81588851  0.73542730  0.99952993     0.80300
N1646       N  0.84588898  0.75960635  0.00083204    -0.78000
C1647       C  0.85097184  0.75336234  0.00097246     0.82800
N1648       N  0.82632793  0.72331465  0.99933572    -0.77900
C1649       C  0.79656045  0.69920698  0.99782329     0.82900
N1650       N  0.79115494  0.70512949  0.99813056    -0.79600
C1651       C  0.71291208  0.76028741  0.26885292    -0.01700
C1652       C  0.73547728  0.78889079  0.25042046     0.07900
C1653       C  0.76430641  0.81186225  0.23203655    -0.01900
C1654       C  0.77048204  0.80627891  0.23197629    -0.01900
C1655       C  0.74788307  0.77763731  0.25028348     0.08100
C1656       C  0.71906459  0.75467853  0.26872918    -0.02100
Br1657     Br  0.68720067  0.71474147  0.29160452    -0.00600
Br1658     Br  0.67282065  0.72801445  0.29219344    -0.00700
Br1659     Br  0.81069233  0.83869371  0.20898913    -0.00600
Br1660     Br  0.79614657  0.85178043  0.20910208    -0.00600
C1661       C  0.77899095  0.57603341  0.26627221    -0.01700
C1662       C  0.75102051  0.55463934  0.24854239     0.07900
C1663       C  0.72618947  0.52459768  0.23229477    -0.01900
C1664       C  0.72927168  0.51598160  0.23385801    -0.01900
C1665       C  0.75725942  0.53738938  0.25151979     0.08100
C1666       C  0.78207424  0.56741759  0.26783720    -0.02100
Br1667     Br  0.82082743  0.59725549  0.29059442    -0.00600
Br1668     Br  0.81369085  0.61773032  0.28634815    -0.00700
Br1669     Br  0.69448092  0.97407073  0.21396617    -0.00600
Br1670     Br  0.68756153  0.99475242  0.20984450    -0.00600
C1671       C  0.98467297  0.76950509  0.22466146    -0.01700
C1672       C  0.51110649  0.79077805  0.25222834     0.07900
C1673       C  0.52879296  0.81513058  0.27931664    -0.01900
C1674       C  0.52017449  0.81821534  0.27876467    -0.01900
C1675       C  0.99378502  0.79698811  0.25109022     0.08100
C1676       C  0.97605028  0.77258613  0.22410799    -0.02100
Br1677     Br  0.93883686  0.74218587  0.18832832    -0.00600
Br1678     Br  0.95908193  0.73495573  0.18965373    -0.00700
Br1679     Br  0.54572076  0.85271087  0.31393647    -0.00600
Br1680     Br  0.56594905  0.84547711  0.31524244    -0.00600
N1681       N  0.56009665  0.78001967  0.85218759    -0.27200
N1682       N  0.57190729  0.78269621  0.82733140    -0.35000
C1683       C  0.58260449  0.78521270  0.85982239     0.01200
C1684       C  0.57736592  0.78411204  0.90775454     0.07200
C1685       C  0.56291680  0.78068056  0.90133854    -0.05900
H1686       H  0.59416759  0.78852212  0.84907927     0.07900
H1687       H  0.55647291  0.78043088  0.93010920     0.09100
Cu1688     Cu  0.57522343  0.78515806  0.75061002     0.44200
Cu1689     Cu  0.54393910  0.77917614  0.81826576     0.42000
Cu1690     Cu  0.54975542  0.78533965  0.68349790     0.43900
N1691       N  0.57481227  0.78579711  0.67380136    -0.34600
N1692       N  0.56489391  0.78519941  0.64904584    -0.28800
C1693       C  0.56774225  0.78593266  0.59987445    -0.04900
C1694       C  0.58025007  0.78725272  0.59339972     0.07300
C1695       C  0.58447409  0.78719324  0.64120844     0.01100
H1696       H  0.56224943  0.78669598  0.57110256     0.08700
H1697       H  0.59413243  0.78837881  0.65171024     0.07800
N1698       N  0.53619869  0.78602169  0.72644656    -0.36000
N1699       N  0.53355358  0.78326060  0.77559511    -0.28200
C1700       C  0.52450258  0.78473358  0.79188076    -0.03400
C1701       C  0.52141950  0.78873857  0.75106108     0.05200
C1702       C  0.52906928  0.78948047  0.71024794     0.03300
H1703       H  0.52064092  0.78320691  0.83061696     0.08400
H1704       H  0.52963499  0.79254909  0.67158644     0.07200
C1705       C  0.58852318  0.78967235  0.95520972     0.03200
C1706       C  0.57626795  0.78172861  0.50078596    -0.12900
C1707       C  0.58988957  0.79110873  0.54587657     0.00700
C1708       C  0.61488272  0.80702796  0.54482582    -0.11400
C1709       C  0.62673243  0.81427305  0.49932813     0.03200
C1710       C  0.61348346  0.80550332  0.95544965    -0.10900
H1711       H  0.55706237  0.76952979  0.50148257     0.08800
H1712       H  0.62691961  0.81615878  0.57907064     0.06400
H1713       H  0.62450668  0.81340909  0.92076164     0.06200
N1714       N  0.94908477  0.81219903  0.64938038    -0.27200
N1715       N  0.93818221  0.81049473  0.67442337    -0.35000
C1716       C  0.92755774  0.80810383  0.64213927     0.01200
C1717       C  0.93192794  0.80830595  0.59414338     0.07200
C1718       C  0.94577674  0.81106365  0.60029225    -0.05900
H1719       H  0.91658443  0.80544124  0.65307453     0.07900
H1720       H  0.95140908  0.81047247  0.57142738     0.09100
Cu1721     Cu  0.93570209  0.80884631  0.75116099     0.44200
Cu1722     Cu  0.96445383  0.81217090  0.68315571     0.42000
Cu1723     Cu  0.95886152  0.80613236  0.81799563     0.43900
N1724       N  0.93560209  0.80759271  0.82787383    -0.34600
N1725       N  0.94455238  0.80714816  0.85257746    -0.28800
C1726       C  0.94123272  0.80591544  0.90172861    -0.04900
C1727       C  0.92942893  0.80535731  0.90819370     0.07300
C1728       C  0.92612383  0.80639768  0.86043654     0.01100
H1729       H  0.94585005  0.80422775  0.93044441     0.08700
H1730       H  0.91710901  0.80590659  0.84991977     0.07800
N1731       N  0.97162392  0.80465507  0.77470195    -0.36000
N1732       N  0.97416908  0.80734607  0.72553993    -0.28200
C1733       C  0.98283211  0.80548050  0.70905931    -0.03400
C1734       C  0.98577948  0.80130568  0.74976162     0.05200
C1735       C  0.97843555  0.80085668  0.79070584     0.03300
H1736       H  0.98665970  0.80699820  0.67028739     0.08400
H1737       H  0.97798395  0.79788182  0.82935487     0.07200
C1738       C  0.91941505  0.80114437  0.95551841     0.03200
C1739       C  0.93213626  0.80949709  0.00097044    -0.12900
C1740       C  0.92049044  0.80251938  0.54694624     0.00700
C1741       C  0.89564735  0.78685245  0.54716418    -0.11400
C1742       C  0.88255866  0.77815699  0.00105368     0.03200
C1743       C  0.89489341  0.78586087  0.95588724    -0.10900
H1744       H  0.95099452  0.82123146  0.00076329     0.08800
H1745       H  0.88491041  0.77922903  0.58206153     0.06400
H1746       H  0.88348856  0.77746028  0.92128492     0.06200
N1747       N  0.74074465  0.60391863  0.64406184    -0.27200
N1748       N  0.74159767  0.61405139  0.66903615    -0.35000
C1749       C  0.74255049  0.62334428  0.63666927     0.01200
C1750       C  0.74222596  0.61884646  0.58871355     0.07200
C1751       C  0.74097780  0.60638416  0.59491977    -0.05900
H1752       H  0.74414830  0.63336261  0.64747881     0.07900
H1753       H  0.74180749  0.60099471  0.56597353     0.09100
Cu1754     Cu  0.74308515  0.61651189  0.74579267     0.44200
Cu1755     Cu  0.74195686  0.58968194  0.67805632     0.42000
Cu1756     Cu  0.74185310  0.58980712  0.81339386     0.43900
N1757       N  0.74247020  0.61504518  0.82262800    -0.34600
N1758       N  0.74134250  0.60465608  0.84753833    -0.28800
C1759       C  0.74182631  0.60731998  0.89666977    -0.04900
C1760       C  0.74352985  0.62019485  0.90301386     0.07300
C1761       C  0.74391351  0.62478210  0.85508715     0.01100
H1762       H  0.74237419  0.60163797  0.92550849     0.08700
H1763       H  0.74565784  0.63494172  0.84439843     0.07800
N1764       N  0.74462346  0.57813994  0.77092035    -0.36000
N1765       N  0.74448428  0.57789584  0.72155233    -0.28200
C1766       C  0.74684694  0.56965717  0.70574821    -0.03400
C1767       C  0.74866316  0.56458803  0.74712285     0.05200
C1768       C  0.74721012  0.57020503  0.78775933     0.03300
H1769       H  0.74754236  0.56782354  0.66702317     0.08400
H1770       H  0.74807661  0.56872779  0.82672822     0.07200
C1771       C  0.74774307  0.63017304  0.95054625     0.03200
C1772       C  0.76335840  0.65496727  0.95141914    -0.12900
C1773       C  0.77087229  0.66699020  0.49636578     0.00700
C1774       C  0.76240598  0.65400286  0.54136068    -0.11400
C1775       C  0.74674627  0.62918461  0.54145165     0.01700
C1776       C  0.73872254  0.61679680  0.49577592    -0.10900
H1777       H  0.77198570  0.66662090  0.91704425     0.08800
H1778       H  0.77065513  0.66524059  0.57610019     0.06400
H1779       H  0.72679449  0.59778793  0.49561386     0.06200
N1780       N  0.76795284  0.48859530  0.85527895    -0.27200
N1781       N  0.76701345  0.97820449  0.83073841    -0.35000
C1782       C  0.76570469  0.96856724  0.86299848     0.01200
C1783       C  0.76617576  0.97317026  0.91099882     0.07200
C1784       C  0.76763652  0.48603215  0.90440976    -0.05900
H1785       H  0.76384235  0.95831631  0.85205801     0.07900
H1786       H  0.76711844  0.49170883  0.93339227     0.09100
Cu1787     Cu  0.76564575  0.97585968  0.75403276     0.44200
Cu1788     Cu  0.76751804  0.50357635  0.82125928     0.42000
Cu1789     Cu  0.76746545  0.50322696  0.68581478     0.43900
N1790       N  0.76672833  0.97769351  0.67724878    -0.34600
N1791       N  0.76783307  0.48822978  0.65172576    -0.28800
C1792       C  0.76750939  0.48567800  0.60261902    -0.04900
C1793       C  0.76586224  0.97266418  0.59692303     0.07300
C1794       C  0.76525963  0.96791174  0.64491794     0.01100
H1795       H  0.76715130  0.49151899  0.57369212     0.08700
H1796       H  0.76328431  0.95755058  0.65575086     0.07800
N1797       N  0.76510249  0.51530847  0.72817293    -0.36000
N1798       N  0.76535258  0.51568831  0.77754248    -0.28200
C1799       C  0.76320884  0.52414949  0.79320690    -0.03400
C1800       C  0.76141584  0.52921876  0.75174875     0.05200
C1801       C  0.76265983  0.52337343  0.71120650     0.03300
H1802       H  0.76257865  0.52607038  0.83190016     0.08400
H1803       H  0.76170110  0.52473824  0.67221137     0.07200
C1804       C  0.76153549  0.96254524  0.54947940     0.03200
C1805       C  0.76976170  0.97520499  0.50403408    -0.12900
C1806       C  0.76163073  0.96277672  0.95819404     0.00700
C1807       C  0.74632855  0.93821972  0.95810436    -0.11400
C1808       C  0.73807029  0.92534446  0.50352827     0.03200
C1809       C  0.74600039  0.93780597  0.54886413    -0.10900
H1810       H  0.78134222  0.49412003  0.50372083     0.08800
H1811       H  0.73827147  0.92713830  0.92330792     0.06400
H1812       H  0.73753418  0.92630850  0.58334713     0.06200
C1813       C  0.69371454  0.85745208  0.49949015     0.80300
N1814       N  0.66370340  0.83322453  0.49735616    -0.78000
C1815       C  0.65843517  0.83927653  0.49844448     0.82800
N1816       N  0.68295708  0.86924856  0.50116816    -0.77900
C1817       C  0.71277940  0.89345629  0.50291398     0.82900
N1818       N  0.71833371  0.88767663  0.50237141    -0.79600
N1819       N  0.72756377  0.84135641  0.64836243    -0.27200
N1820       N  0.72098619  0.84424776  0.67323911    -0.35000
C1821       C  0.71448428  0.84625086  0.64086708     0.01200
C1822       C  0.71699813  0.84452420  0.59280544     0.07200
C1823       C  0.72539548  0.84145095  0.59923039    -0.05900
H1824       H  0.70780126  0.84818154  0.65191839     0.07900
H1825       H  0.72944225  0.83918267  0.57055564     0.09100
Cu1826     Cu  0.71990135  0.84420900  0.74993959     0.44200
Cu1827     Cu  0.73777882  0.83595143  0.68265411     0.42000
Cu1828     Cu  0.73335750  0.83151441  0.81751970     0.43900
N1829       N  0.71900472  0.84228879  0.82661413    -0.34600
N1830       N  0.72388943  0.83768454  0.85150171    -0.28800
C1831       C  0.72138131  0.83744319  0.90056951    -0.04900
C1832       C  0.71452216  0.84208659  0.90700686     0.07300
C1833       C  0.71324504  0.84506153  0.85895952     0.01100
H1834       H  0.72435982  0.83407982  0.92915619     0.08700
H1835       H  0.70825376  0.84872081  0.84787889     0.07800
N1836       N  0.74210660  0.82572901  0.77479716    -0.36000
N1837       N  0.74398087  0.82760592  0.72552285    -0.28200
C1838       C  0.74979037  0.82279405  0.70926227    -0.03400
C1839       C  0.75163820  0.81759862  0.75017620     0.05200
C1840       C  0.74664211  0.81964536  0.79108317     0.03300
H1841       H  0.75235793  0.82292800  0.67046479     0.08400
H1842       H  0.74647454  0.81704896  0.82988572     0.07200
C1843       C  0.70927269  0.84316812  0.95469073     0.03200
C1844       C  0.70444981  0.85007607  0.95539302    -0.12900
C1845       C  0.69940946  0.85084957  0.49958936     0.00700
C1846       C  0.70606861  0.85163555  0.54444006    -0.11400
C1847       C  0.71081172  0.84464905  0.54520415     0.03200
C1848       C  0.70895658  0.83711840  0.00008105    -0.10900
H1849       H  0.70462476  0.85490716  0.92109049     0.08800
H1850       H  0.70731022  0.85751801  0.57854844     0.06400
H1851       H  0.71250998  0.83171205  0.99986504     0.06200
N1852       N  0.79616034  0.76578861  0.85086161    -0.27200
N1853       N  0.80210721  0.76225559  0.82599369    -0.35000
C1854       C  0.80588861  0.75748610  0.85833221     0.01200
C1855       C  0.80216851  0.75799202  0.90638109     0.07200
C1856       C  0.79603071  0.76336699  0.89992341    -0.05900
H1857       H  0.81080819  0.75375636  0.84723708     0.07900
H1858       H  0.79160201  0.76526939  0.92847383     0.09100
Cu1859     Cu  0.80447792  0.76364093  0.74933261     0.44200
Cu1860     Cu  0.78851183  0.77378824  0.81676287     0.42000
Cu1861     Cu  0.79480469  0.78009969  0.68187477     0.43900
N1862       N  0.80506475  0.76524002  0.67263734    -0.34600
N1863       N  0.80156176  0.77120642  0.64766664    -0.28800
C1864       C  0.80183075  0.76917890  0.59855486    -0.04900
C1865       C  0.80562465  0.76147673  0.59223631     0.07300
C1866       C  0.80764951  0.75928702  0.64035906     0.01100
H1867       H  0.79891034  0.77257397  0.56984857     0.08700
H1868       H  0.80994965  0.75296977  0.65154453     0.07800
N1869       N  0.78635139  0.78617584  0.72486311    -0.36000
N1870       N  0.78380634  0.78361268  0.77406201    -0.28200
C1871       C  0.77798156  0.78839853  0.79043875    -0.03400
C1872       C  0.77676585  0.79424784  0.74969477     0.05200
C1873       C  0.78219687  0.79265147  0.70875538     0.03300
H1874       H  0.77482662  0.78765422  0.82919818     0.08400
H1875       H  0.78276483  0.79566878  0.67002393     0.07200
C1876       C  0.80370089  0.75315567  0.95405371     0.03200
C1877       C  0.79834494  0.75354655  0.49950013    -0.12900
C1878       C  0.80539164  0.75489295  0.54477797     0.00700
C1879       C  0.81148764  0.74924813  0.54436016    -0.11400
C1880       C  0.80975953  0.74161533  0.49982188     0.03200
C1881       C  0.80947886  0.74719303  0.95448856    -0.10900
H1882       H  0.79396944  0.75814213  0.49935407     0.08800
H1883       H  0.81725769  0.75039105  0.57852716     0.06400
H1884       H  0.81324640  0.74631540  0.92000644     0.06200
C1885       C  0.81550807  0.73506499  0.50004800     0.80300
N1886       N  0.84546936  0.75921409  0.50312966    -0.78000
C1887       C  0.85061438  0.75303051  0.50281294     0.82800
N1888       N  0.82602572  0.72302691  0.49991732    -0.77900
C1889       C  0.79628121  0.69893238  0.49710133     0.82900
N1890       N  0.79086238  0.70484082  0.49684975    -0.79600
C1891       C  0.73546463  0.78298786  0.76861824    -0.01700
C1892       C  0.75805012  0.81160328  0.75017884     0.07900
C1893       C  0.78683174  0.83451954  0.73167521    -0.01900
C1894       C  0.79295082  0.82887949  0.73150432    -0.01900
C1895       C  0.77034320  0.80023662  0.74983180     0.08100
C1896       C  0.74155733  0.77731917  0.76837761    -0.02100
Br1897     Br  0.70964224  0.73734830  0.79122613    -0.00600
Br1898     Br  0.69542965  0.75078023  0.79216167    -0.00700
Br1899     Br  0.83309562  0.86121594  0.70833709    -0.00600
Br1900     Br  0.81868769  0.87444696  0.70876019    -0.00600
C1901       C  0.77991808  0.57692824  0.76575844    -0.01700
C1902       C  0.75200921  0.55561746  0.74793070     0.07900
C1903       C  0.72719593  0.52561435  0.73141973    -0.01900
C1904       C  0.73020934  0.51693068  0.73292280    -0.01900
C1905       C  0.75810618  0.53822742  0.75080492     0.08100
C1906       C  0.78292442  0.56823750  0.76729704    -0.02100
Br1907     Br  0.82158333  0.59795421  0.79026351    -0.00600
Br1908     Br  0.81465904  0.61863361  0.78594196    -0.00700
Br1909     Br  0.69554073  0.97502968  0.71350538    -0.00600
Br1910     Br  0.68836286  0.99545924  0.70925925    -0.00600
C1911       C  0.98585988  0.77067968  0.72325297    -0.01700
C1912       C  0.51225082  0.79190562  0.75089981     0.07900
C1913       C  0.52999546  0.81630932  0.77789636    -0.01900
C1914       C  0.52139053  0.81940723  0.77738165    -0.01900
C1915       C  0.99496894  0.79815569  0.74978532     0.08100
C1916       C  0.97726483  0.77379002  0.72269001    -0.02100
Br1917     Br  0.94013814  0.74348022  0.68671550    -0.00600
Br1918     Br  0.96030929  0.73617437  0.68812656    -0.00700
Br1919     Br  0.54700769  0.85395829  0.81248587    -0.00600
Br1920     Br  0.56722669  0.84671596  0.81360813    -0.00600
loop_ 
_geom_bond_atom_site_label_1 
_geom_bond_atom_site_label_2 
_geom_bond_distance 
_geom_bond_site_symmetry_2 
_ccdc_geom_bond_type 
N1            N2   1.321       .  A
N1            C5   1.345       .  A
N1           Cu9   2.085       .  S
N2            C3   1.344       .  A
N2           Cu8   2.061       .  S
C3            C4   1.384       .  A
C3            H6   1.081       .  S
C4            C5   1.390       .  A
C4           C25   1.483       .  S
C5            H7   1.081       .  S
Cu8          N11   2.061       .  S
Cu9          N19   2.085       .  S
Cu10         N12   2.080       .  S
Cu10         N18   2.080       .  S
N11          N12   1.321       .  A
N11          C15   1.344       .  A
N12          C13   1.345       .  A
C13          C14   1.388       .  A
C13          H16   1.082       .  S
C14          C15   1.384       .  A
C14          C27   1.480       .  S
C15          H17   1.082       .  S
N18          N19   1.323       .  A
N18          C22   1.346       .  A
N19          C20   1.347       .  A
C20          C21   1.387       .  A
C20          H23   1.082       .  S
C21          C22   1.385       .  A
C21         C232   1.487       .  S
C22          H24   1.082       .  S
C25          C30   1.408       .  A
C25         C266   1.404       .  A
C26          C27   1.403       .  A
C26         C265   1.404   1_554  A
C26          H31   1.082       .  S
C27          C28   1.405       .  A
C28          C29   1.401       .  A
C28          H32   1.084       .  S
C29         C270   1.402   1_554  A
C29         C135   1.467   1_554  S
C30         C269   1.402       .  A
C30          H33   1.083       .  S
N34          N35   1.321       .  A
N34          C38   1.345       .  A
N34         Cu42   2.085       .  S
N35          C36   1.344       .  A
N35         Cu41   2.062       .  S
C36          C37   1.384       .  A
C36          H39   1.081       .  S
C37          C38   1.389       .  A
C37          C60   1.483       .  S
C38          H40   1.081       .  S
Cu41         N44   2.062       .  S
Cu42         N52   2.085       .  S
Cu43         N45   2.080       .  S
Cu43         N51   2.080       .  S
N44          N45   1.321       .  A
N44          C48   1.344       .  A
N45          C46   1.345       .  A
C46          C47   1.388       .  A
C46          H49   1.082       .  S
C47          C48   1.384       .  A
C47          C58   1.480       .  S
C48          H50   1.082       .  S
N51          N52   1.323       .  A
N51          C55   1.346       .  A
N52          C53   1.348       .  A
C53          C54   1.387       .  A
C53          H56   1.082       .  S
C54          C55   1.385       .  A
C54         C235   1.487       .  S
C55          H57   1.082       .  S
C58          C59   1.403       .  A
C58          C63   1.405       .  A
C59         C300   1.404       .  A
C59          H64   1.082       .  S
C60          C61   1.408       .  A
C60         C299   1.404       .  A
C61         C302   1.403       .  A
C61          H65   1.083       .  S
C62          C63   1.402       .  A
C62         C301   1.403       .  A
C62         C447   1.468       .  S
C63          H66   1.084       .  S
N67          N68   1.322       .  A
N67          C71   1.346       .  A
N67         Cu75   2.087       .  S
N68          C69   1.343       .  A
N68         Cu74   2.062       .  S
C69          C70   1.383       .  A
C69          H72   1.082       .  S
C70          C71   1.389       .  A
C70          C95   1.482       .  S
C71          H73   1.082       .  S
Cu74         N77   2.062       .  S
Cu75         N85   2.087       .  S
Cu76         N78   2.083       .  S
Cu76         N84   2.084       .  S
N77          N78   1.321       .  A
N77          C81   1.344       .  A
N78          C79   1.345       .  A
C79          C80   1.389       .  A
C79          H82   1.082       .  S
C80          C81   1.385       .  A
C80          C91   1.482       .  S
C81          H83   1.082       .  S
N84          N85   1.323       .  A
N84          C88   1.347       .  A
N85          C86   1.348       .  A
C86          C87   1.385       .  A
C86          H89   1.082       .  S
C87          C88   1.384       .  A
C87         C222   1.485       .  S
C88          H90   1.082       .  S
C91          C92   1.407       .  A
C91         C336   1.404       .  A
C92         C333   1.403       .  A
C92          H97   1.083       .  S
C93          C94   1.402   1_556  A
C93         C332   1.403       .  A
C93         C209   1.468       .  S
C94          C95   1.406       .  A
C94          H98   1.083       .  S
C95          C96   1.403   1_554  A
C96         C331   1.404       .  A
C96          H99   1.082       .  S
N100        N581   1.322       .  A
N100        C104   1.346       .  A
N100       Cu108   2.088   1_565  S
N101        N580   1.322       .  A
N101        C102   1.344       .  A
N101       Cu107   2.062       .  S
C102        C103   1.384       .  A
C102        H105   1.082       .  S
C103        C584   1.390       .  A
C103        C126   1.483       .  S
C104        C583   1.390       .  A
C104        H106   1.082       .  S
Cu107       N110   2.062       .  S
Cu108       N118   2.088       .  S
Cu109       N111   2.083   1_545  S
Cu109       N117   2.084       .  S
N110        N591   1.321       .  A
N110        C114   1.344       .  A
N111        N590   1.321       .  A
N111        C112   1.345       .  A
C112        C593   1.389       .  A
C112        H115   1.082       .  S
C113        C114   1.385       .  A
C113        C592   1.389       .  A
C113        C124   1.483       .  S
C114        H116   1.082       .  S
N117        N118   1.323       .  A
N117        C121   1.347       .  A
N118        C119   1.348       .  A
C119        C120   1.385       .  A
C119        H122   1.082       .  S
C120        C121   1.384       .  A
C120        C225   1.485       .  S
C121        H123   1.082       .  S
C124        C125   1.404       .  A
C124        C129   1.407       .  A
C125        C366   1.403   1_554  A
C125        H610   1.082       .  S
C126        C127   1.407       .  A
C126        C365   1.403       .  A
C127        C368   1.402       .  A
C127        H131   1.083       .  S
C128        C129   1.403       .  A
C128        C367   1.402   1_554  A
C128        C137   1.469       .  S
C129        H132   1.083       .  S
H130        C605   1.082       .  S
C133        N134   1.365   1_554  A
C133        N138   1.366       .  A
C133        C165   1.477       .  S
N134        C135   1.360       .  A
C135        N136   1.350   1_556  A
N136        C137   1.350       .  A
C137        N138   1.362       .  A
N139        N140   1.320       .  A
N139        C143   1.344       .  A
N139       Cu147   2.091       .  S
N140        C141   1.343       .  A
N140       Cu146   2.054       .  S
C141        C142   1.385       .  A
C141        H144   1.081       .  S
C142        C143   1.394       .  A
C142        C167   1.489       .  S
C143        H145   1.080       .  S
Cu146       N149   2.054       .  S
Cu147       N157   2.091       .  S
Cu148       N150   2.090       .  S
Cu148       N156   2.090       .  S
N149        N150   1.320       .  A
N149        C153   1.343       .  A
N150        C151   1.344       .  A
C151        C152   1.394       .  A
C151        H154   1.080       .  S
C152        C153   1.385       .  A
C152        C163   1.489       .  S
C153        H155   1.081       .  S
N156        N157   1.323       .  A
N156        C160   1.348       .  A
N157        C158   1.348       .  A
C158        C159   1.387       .  A
C158        H161   1.082       .  S
C159        C160   1.387       .  A
C159        C212   1.490       .  S
C160        H162   1.082       .  S
C163        C164   1.410       .  A
C163        C168   1.404       .  A
C164        C405   1.403       .  A
C164        H169   1.081       .  S
C165        C166   1.404       .  A
C165        C404   1.403   1_554  A
C166        C167   1.410       .  A
C166        H170   1.082       .  S
C167        C408   1.403       .  A
C168        C407   1.403       .  A
C168        H171   1.077       .  S
N172        N173   1.320       .  A
N172        C176   1.345       .  A
N172       Cu180   2.091       .  S
N173        C174   1.343       .  A
N173       Cu179   2.054       .  S
C174        C175   1.385       .  A
C174        H177   1.081       .  S
C175        C176   1.394       .  A
C175        C196   1.489       .  S
C176        H178   1.080       .  S
Cu179       N182   2.054       .  S
Cu180       N190   2.091       .  S
Cu181       N183   2.090       .  S
Cu181       N189   2.090       .  S
N182        N183   1.320       .  A
N182        C186   1.343       .  A
N183        C184   1.344       .  A
C184        C185   1.394       .  A
C184        H187   1.080       .  S
C185        C186   1.385       .  A
C185        C198   1.489       .  S
C186        H188   1.081       .  S
N189        N190   1.323       .  A
N189        C193   1.348       .  A
N190        C191   1.348       .  A
C191        C192   1.387       .  A
C191        H194   1.082       .  S
C192        C193   1.387       .  A
C192        C215   1.491       .  S
C193        H195   1.082       .  S
C196        C201   1.410       .  A
C196        C437   1.403       .  A
C197        C198   1.403   1_556  A
C197        C436   1.403       .  A
C197        H202   1.076       .  S
C198        C199   1.410       .  A
C199        C200   1.403   1_554  A
C199        H203   1.082       .  S
C200        C441   1.404       .  A
C200        C205   1.477       .  S
C201        C440   1.403       .  A
C201        H204   1.082       .  S
C205        N206   1.365   1_556  A
C205        N210   1.366       .  A
N206        C207   1.360       .  A
C207        N208   1.350   1_554  A
C207        C302   1.468       .  S
N208        C209   1.350       .  A
C209        N210   1.361       .  A
C211        C212   1.413       .  A
C211        C216   1.413       .  A
C211       Br218   1.930       .  S
C212        C213   1.412       .  A
C213        C214   1.412       .  A
C213       Br220   1.931       .  S
C214        C215   1.413       .  A
C214       Br219   1.930       .  S
C215        C216   1.413       .  A
C216       Br217   1.931       .  S
C221        C222   1.411       .  A
C221        C226   1.411       .  A
C221       Br228   1.930       .  S
C222        C223   1.411       .  A
C223        C224   1.411       .  A
C223       Br710   1.929   1_545  S
C224        C225   1.411       .  A
C224       Br709   1.930   1_545  S
C225        C226   1.411       .  A
C226       Br227   1.929       .  S
Br229       C704   1.930       .  S
Br230       C703   1.929       .  S
C231        C236   1.411       .  A
C231       C1192   1.412       .  A
C231       Br238   1.931       .  S
C232        C233   1.412       .  A
C232       C1191   1.412   1_455  A
C233        C234   1.411       .  A
C233       Br240   1.931       .  S
C234       C1195   1.413   1_455  A
C234       Br239   1.931       .  S
C235        C236   1.412       .  A
C235       C1194   1.413       .  A
C236       Br237   1.931       .  S
N241        N242   1.321       .  A
N241        C245   1.345       .  A
N241       Cu249   2.085       .  S
N242        C243   1.344       .  A
N242       Cu248   2.062       .  S
C243        C244   1.384       .  A
C243        H246   1.081       .  S
C244        C245   1.390       .  A
C244        C265   1.483       .  S
C245        H247   1.081       .  S
Cu248       N251   2.062       .  S
Cu249       N259   2.085       .  S
Cu250       N252   2.080       .  S
Cu250       N258   2.080       .  S
N251        N252   1.321       .  A
N251        C255   1.344       .  A
N252        C253   1.345       .  A
C253        C254   1.388       .  A
C253        H256   1.082       .  S
C254        C255   1.384       .  A
C254        C267   1.480       .  S
C255        H257   1.082       .  S
N258        N259   1.323       .  A
N258        C262   1.346       .  A
N259        C260   1.347       .  A
C260        C261   1.387       .  A
C260        H263   1.082       .  S
C261        C262   1.385       .  A
C261        C472   1.487       .  S
C262        H264   1.082       .  S
C265        C270   1.408       .  A
C266        C267   1.403       .  A
C266        H271   1.082       .  S
C267        C268   1.405       .  A
C268        C269   1.401       .  A
C268        H272   1.084       .  S
C269        C375   1.467       .  S
C270        H273   1.083       .  S
N274        N275   1.321       .  A
N274        C278   1.345       .  A
N274       Cu282   2.085       .  S
N275        C276   1.344       .  A
N275       Cu281   2.062       .  S
C276        C277   1.384       .  A
C276        H279   1.081       .  S
C277        C278   1.390       .  A
C277        C300   1.483       .  S
C278        H280   1.081       .  S
Cu281       N284   2.061       .  S
Cu282       N292   2.086       .  S
Cu283       N285   2.080       .  S
Cu283       N291   2.081       .  S
N284        N285   1.321       .  A
N284        C288   1.344       .  A
N285        C286   1.345       .  A
C286        C287   1.388       .  A
C286        H289   1.082       .  S
C287        C288   1.383       .  A
C287        C298   1.480       .  S
C288        H290   1.082       .  S
N291        N292   1.323       .  A
N291        C295   1.346       .  A
N292        C293   1.348       .  A
C293        C294   1.387       .  A
C293        H296   1.082       .  S
C294        C295   1.385       .  A
C294        C475   1.488       .  S
C295        H297   1.082       .  S
C298        C299   1.403   1_556  A
C298        C303   1.405       .  A
C299        H304   1.082       .  S
C300        C301   1.408       .  A
C301        H305   1.083       .  S
C302        C303   1.401   1_554  A
C303        H306   1.084       .  S
N307        N308   1.322       .  A
N307        C311   1.346       .  A
N307       Cu315   2.087       .  S
N308        C309   1.343       .  A
N308       Cu314   2.062       .  S
C309        C310   1.384       .  A
C309        H312   1.082       .  S
C310        C311   1.389       .  A
C310        C335   1.482       .  S
C311        H313   1.082       .  S
Cu314       N317   2.062       .  S
Cu315       N325   2.087       .  S
Cu316       N318   2.083       .  S
Cu316       N324   2.083       .  S
N317        N318   1.321       .  A
N317        C321   1.344       .  A
N318        C319   1.345       .  A
C319        C320   1.389       .  A
C319        H322   1.081       .  S
C320        C321   1.385       .  A
C320        C331   1.482       .  S
C321        H323   1.082       .  S
N324        N325   1.323       .  A
N324        C328   1.347       .  A
N325        C326   1.348       .  A
C326        C327   1.385       .  A
C326        H329   1.082       .  S
C327        C328   1.384       .  A
C327        C462   1.484       .  S
C328        H330   1.082       .  S
C331        C332   1.407       .  A
C332        H337   1.083       .  S
C333        C334   1.402       .  A
C333        C449   1.468       .  S
C334        C335   1.406       .  A
C334        H338   1.083       .  S
C335        C336   1.403       .  A
C336        H339   1.082       .  S
N340        N821   1.322       .  A
N340        C344   1.346       .  A
N340       Cu348   2.087   1_565  S
N341        N820   1.322       .  A
N341        C342   1.343       .  A
N341       Cu347   2.061       .  S
C342        C343   1.384       .  A
C342        H345   1.082       .  S
C343        C824   1.390       .  A
C343        C366   1.483       .  S
C344        C823   1.390       .  A
C344        H346   1.081       .  S
Cu347       N350   2.062       .  S
Cu348       N358   2.088       .  S
Cu349       N351   2.083   1_545  S
Cu349       N357   2.084       .  S
N350        N831   1.321       .  A
N350        C354   1.344       .  A
N351        N830   1.321       .  A
N351        C352   1.345       .  A
C352        C833   1.389       .  A
C352        H355   1.081       .  S
C353        C832   1.389       .  A
C353        C354   1.385       .  A
C353        C364   1.483       .  S
C354        H356   1.082       .  S
N357        N358   1.324       .  A
N357        C361   1.347       .  A
N358        C359   1.348       .  A
C359        C360   1.385       .  A
C359        H362   1.082       .  S
C360        C361   1.384       .  A
C360        C465   1.485       .  S
C361        H363   1.082       .  S
C364        C365   1.404       .  A
C364        C369   1.407       .  A
C365        H850   1.082       .  S
C366        C367   1.407       .  A
C367        H371   1.083       .  S
C368        C369   1.403       .  A
C368        C377   1.469       .  S
C369        H372   1.083       .  S
H370        C845   1.082       .  S
C373        N374   1.365       .  A
C373        N378   1.366       .  A
C373        C405   1.477       .  S
N374        C375   1.360       .  A
C375        N376   1.350       .  A
N376        C377   1.350       .  A
C377        N378   1.362       .  A
N379        N380   1.320       .  A
N379        C383   1.345       .  A
N379       Cu387   2.091       .  S
N380        C381   1.343       .  A
N380       Cu386   2.054       .  S
C381        C382   1.385       .  A
C381        H384   1.081       .  S
C382        C383   1.394       .  A
C382        C407   1.489       .  S
C383        H385   1.080       .  S
Cu386       N389   2.054       .  S
Cu387       N397   2.091       .  S
Cu388       N390   2.089       .  S
Cu388       N396   2.089       .  S
N389        N390   1.320       .  A
N389        C393   1.343       .  A
N390        C391   1.344       .  A
C391        C392   1.394       .  A
C391        H394   1.080       .  S
C392        C393   1.385       .  A
C392        C403   1.489       .  S
C393        H395   1.081       .  S
N396        N397   1.323       .  A
N396        C400   1.348       .  A
N397        C398   1.348       .  A
C398        C399   1.387       .  A
C398        H401   1.082       .  S
C399        C400   1.386       .  A
C399        C452   1.490       .  S
C400        H402   1.082       .  S
C403        C404   1.410       .  A
C403        C408   1.403   1_556  A
C404        H409   1.082       .  S
C405        C406   1.403       .  A
C406        C407   1.410       .  A
C406        H410   1.082       .  S
C408        H411   1.076       .  S
N412        N413   1.320       .  A
N412        C416   1.344       .  A
N412       Cu420   2.090       .  S
N413        C414   1.343       .  A
N413       Cu419   2.054       .  S
C414        C415   1.385       .  A
C414        H417   1.081       .  S
C415        C416   1.394       .  A
C415        C436   1.489       .  S
C416        H418   1.080       .  S
Cu419       N422   2.054       .  S
Cu420       N430   2.090       .  S
Cu421       N423   2.091       .  S
Cu421       N429   2.091       .  S
N422        N423   1.320       .  A
N422        C426   1.343       .  A
N423        C424   1.345       .  A
C424        C425   1.394       .  A
C424        H427   1.080       .  S
C425        C426   1.385       .  A
C425        C438   1.490       .  S
C426        H428   1.081       .  S
N429        N430   1.323       .  A
N429        C433   1.348       .  A
N430        C431   1.348       .  A
C431        C432   1.387       .  A
C431        H434   1.082       .  S
C432        C433   1.387       .  A
C432        C455   1.491       .  S
C433        H435   1.082       .  S
C436        C441   1.410       .  A
C437        C438   1.404       .  A
C437        H442   1.077       .  S
C438        C439   1.410       .  A
C439        C440   1.403       .  A
C439        H443   1.081       .  S
C440        C445   1.477       .  S
C441        H444   1.082       .  S
C445        N446   1.365       .  A
C445        N450   1.366       .  A
N446        C447   1.361       .  A
C447        N448   1.350       .  A
N448        C449   1.350       .  A
C449        N450   1.361       .  A
C451        C452   1.413       .  A
C451        C456   1.413       .  A
C451       Br458   1.930       .  S
C452        C453   1.412       .  A
C453        C454   1.412       .  A
C453       Br460   1.931       .  S
C454        C455   1.413       .  A
C454       Br459   1.930       .  S
C455        C456   1.413       .  A
C456       Br457   1.931       .  S
C461        C462   1.411       .  A
C461        C466   1.411       .  A
C461       Br468   1.930       .  S
C462        C463   1.411       .  A
C463        C464   1.411       .  A
C463       Br950   1.929   1_545  S
C464        C465   1.411       .  A
C464       Br949   1.930   1_545  S
C465        C466   1.411       .  A
C466       Br467   1.929       .  S
Br469       C944   1.930       .  S
Br470       C943   1.929       .  S
C471       C1432   1.412       .  A
C471        C476   1.411       .  A
C471       Br478   1.931       .  S
C472       C1431   1.412   1_455  A
C472        C473   1.412       .  A
C473        C474   1.411       .  A
C473       Br480   1.931       .  S
C474       C1435   1.413   1_455  A
C474       Br479   1.931       .  S
C475       C1434   1.413       .  A
C475        C476   1.413       .  A
C476       Br477   1.931       .  S
N481        N482   1.321       .  A
N481        C485   1.345       .  A
N481       Cu489   2.085       .  S
N482        C483   1.344       .  A
N482       Cu488   2.061       .  S
C483        C484   1.384       .  A
C483        H486   1.081       .  S
C484        C485   1.390       .  A
C484        C505   1.483       .  S
C485        H487   1.081       .  S
Cu488       N491   2.061       .  S
Cu489       N499   2.086       .  S
Cu490       N492   2.080       .  S
Cu490       N498   2.081       .  S
N491        N492   1.321       .  A
N491        C495   1.344       .  A
N492        C493   1.345       .  A
C493        C494   1.388       .  A
C493        H496   1.082       .  S
C494        C495   1.383       .  A
C494        C507   1.480       .  S
C495        H497   1.082       .  S
N498        N499   1.323       .  A
N498        C502   1.346       .  A
N499        C500   1.348       .  A
C500        C501   1.387       .  A
C500        H503   1.082       .  S
C501        C502   1.385       .  A
C501        C712   1.488       .  S
C502        H504   1.082       .  S
C505        C746   1.404       .  A
C505        C510   1.408       .  A
C506        C745   1.404   1_554  A
C506        C507   1.403       .  A
C506        H511   1.082       .  S
C507        C508   1.405       .  A
C508        C509   1.401       .  A
C508        H512   1.084       .  S
C509        C750   1.402   1_554  A
C509        C615   1.467       .  S
C510        C749   1.402       .  A
C510        H513   1.083       .  S
N514        N515   1.322       .  A
N514        C518   1.345       .  A
N514       Cu522   2.085       .  S
N515        C516   1.344       .  A
N515       Cu521   2.063       .  S
C516        C517   1.384       .  A
C516        H519   1.081       .  S
C517        C518   1.389       .  A
C517        C540   1.483       .  S
C518        H520   1.081       .  S
Cu521       N524   2.063       .  S
Cu522       N532   2.085       .  S
Cu523       N525   2.081       .  S
Cu523       N531   2.081       .  S
N524        N525   1.321       .  A
N524        C528   1.344       .  A
N525        C526   1.345       .  A
C526        C527   1.388       .  A
C526        H529   1.082       .  S
C527        C528   1.384       .  A
C527        C538   1.480       .  S
C528        H530   1.082       .  S
N531        N532   1.323       .  A
N531        C535   1.346       .  A
N532        C533   1.348       .  A
C533        C534   1.387       .  A
C533        H536   1.082       .  S
C534        C535   1.385       .  A
C534        C715   1.488       .  S
C535        H537   1.082       .  S
C538        C539   1.403       .  A
C538        C543   1.405       .  A
C539        C780   1.404       .  A
C539        H544   1.082       .  S
C540        C779   1.404       .  A
C540        C541   1.408       .  A
C541        C782   1.403       .  A
C541        H545   1.083       .  S
C542        C781   1.403       .  A
C542        C543   1.402       .  A
C542        C927   1.468       .  S
C543        H546   1.084       .  S
N547        N548   1.322       .  A
N547        C551   1.346       .  A
N547       Cu555   2.086       .  S
N548        C549   1.343       .  A
N548       Cu554   2.061       .  S
C549        C550   1.383       .  A
C549        H552   1.082       .  S
C550        C551   1.389       .  A
C550        C575   1.482       .  S
C551        H553   1.082       .  S
Cu554       N557   2.061       .  S
Cu555       N565   2.087       .  S
Cu556       N558   2.083       .  S
Cu556       N564   2.083       .  S
N557        N558   1.321       .  A
N557        C561   1.344       .  A
N558        C559   1.345       .  A
C559        C560   1.389       .  A
C559        H562   1.082       .  S
C560        C561   1.384       .  A
C560        C571   1.482       .  S
C561        H563   1.082       .  S
N564        N565   1.323       .  A
N564        C568   1.347       .  A
N565        C566   1.348       .  A
C566        C567   1.385       .  A
C566        H569   1.082       .  S
C567        C568   1.384       .  A
C567        C702   1.484       .  S
C568        H570   1.082       .  S
C571        C572   1.407       .  A
C571        C816   1.404       .  A
C572        C813   1.402       .  A
C572        H577   1.083       .  S
C573        C812   1.403       .  A
C573        C574   1.401   1_556  A
C573        C689   1.468       .  S
C574        C575   1.406       .  A
C574        H578   1.083       .  S
C575        C576   1.403   1_554  A
C576        C811   1.404       .  A
C576        H579   1.082       .  S
N580        C584   1.346       .  A
N580       Cu588   2.088       .  S
N581        C582   1.344       .  A
N581       Cu587   2.062       .  S
C582        C583   1.384       .  A
C582        H585   1.082       .  S
C583        C606   1.483       .  S
C584        H586   1.081       .  S
Cu587       N590   2.062       .  S
Cu588       N598   2.088       .  S
Cu589       N591   2.083       .  S
Cu589       N597   2.084       .  S
N590        C594   1.344       .  A
N591        C592   1.345       .  A
C592        H595   1.081       .  S
C593        C594   1.385       .  A
C593        C604   1.483       .  S
C594        H596   1.082       .  S
N597        N598   1.324       .  A
N597        C601   1.347       .  A
N598        C599   1.348       .  A
C599        C600   1.385       .  A
C599        H602   1.082       .  S
C600        C601   1.384       .  A
C600        C705   1.485       .  S
C601        H603   1.082       .  S
C604        C605   1.404       .  A
C604        C609   1.407       .  A
C605        C846   1.403   1_554  A
C606        C845   1.403       .  A
C606        C607   1.406       .  A
C607        C848   1.402       .  A
C607        H611   1.083       .  S
C608        C847   1.402   1_554  A
C608        C609   1.403       .  A
C608        C617   1.469       .  S
C609        H612   1.083       .  S
C613        N614   1.365       .  A
C613        N618   1.366       .  A
C613        C645   1.477       .  S
N614        C615   1.360       .  A
C615        N616   1.350       .  A
N616        C617   1.350       .  A
C617        N618   1.361       .  A
N619        N620   1.321       .  A
N619        C623   1.345       .  A
N619       Cu627   2.091       .  S
N620        C621   1.344       .  A
N620       Cu626   2.060       .  S
C621        C622   1.386       .  A
C621        H624   1.081       .  S
C622        C623   1.394       .  A
C622        C647   1.491       .  S
C623        H625   1.080       .  S
Cu626       N629   2.060       .  S
Cu627       N637   2.091       .  S
Cu628       N630   2.091       .  S
Cu628       N636   2.091       .  S
N629        N630   1.321       .  A
N629        C633   1.344       .  A
N630        C631   1.345       .  A
C631        C632   1.394       .  A
C631        H634   1.080       .  S
C632        C633   1.386       .  A
C632        C643   1.491       .  S
C633        H635   1.081       .  S
N636        N637   1.323       .  A
N636        C640   1.349       .  A
N637        C638   1.348       .  A
C638        C639   1.387       .  A
C638        H641   1.082       .  S
C639        C640   1.387       .  A
C639        C692   1.490       .  S
C640        H642   1.082       .  S
C643        C644   1.410       .  A
C643        C648   1.405       .  A
C644        C885   1.403       .  A
C644        H649   1.082       .  S
C645        C884   1.403   1_554  A
C645        C646   1.404       .  A
C646        C647   1.410       .  A
C646        H650   1.082       .  S
C647        C888   1.405       .  A
C648        C887   1.405       .  A
C648        H651   1.077       .  S
N652        N653   1.321       .  A
N652        C656   1.345       .  A
N652       Cu660   2.091       .  S
N653        C654   1.344       .  A
N653       Cu659   2.061       .  S
C654        C655   1.386       .  A
C654        H657   1.081       .  S
C655        C656   1.393       .  A
C655        C676   1.490       .  S
C656        H658   1.081       .  S
Cu659       N662   2.061       .  S
Cu660       N670   2.091       .  S
Cu661       N663   2.090       .  S
Cu661       N669   2.090       .  S
N662        N663   1.321       .  A
N662        C666   1.344       .  A
N663        C664   1.345       .  A
C664        C665   1.394       .  A
C664        H667   1.080       .  S
C665        C666   1.386       .  A
C665        C678   1.491       .  S
C666        H668   1.081       .  S
N669        N670   1.323       .  A
N669        C673   1.348       .  A
N670        C671   1.348       .  A
C671        C672   1.387       .  A
C671        H674   1.082       .  S
C672        C673   1.387       .  A
C672        C695   1.491       .  S
C673        H675   1.082       .  S
C676        C917   1.405       .  A
C676        C681   1.410       .  A
C677        C916   1.405       .  A
C677        C678   1.405   1_556  A
C677        H682   1.077       .  S
C678        C679   1.410       .  A
C679        C680   1.403   1_554  A
C679        H683   1.081       .  S
C680        C921   1.403       .  A
C680        C685   1.477       .  S
C681        C920   1.403       .  A
C681        H684   1.082       .  S
C685        N686   1.366   1_556  A
C685        N690   1.366       .  A
N686        C687   1.361       .  A
C687        N688   1.350   1_554  A
C687        C782   1.468       .  S
N688        C689   1.350       .  A
C689        N690   1.361       .  A
C691        C692   1.412       .  A
C691        C696   1.413       .  A
C691       Br698   1.930       .  S
C692        C693   1.412       .  A
C693        C694   1.412       .  A
C693       Br700   1.931       .  S
C694        C695   1.413       .  A
C694       Br699   1.930       .  S
C695        C696   1.413       .  A
C696       Br697   1.931       .  S
C701        C702   1.411       .  A
C701        C706   1.411       .  A
C701       Br708   1.930       .  S
C702        C703   1.411       .  A
C703        C704   1.411       .  A
C704        C705   1.411       .  A
C705        C706   1.411       .  A
C706       Br707   1.929       .  S
C711       C1672   1.412       .  A
C711        C716   1.411       .  A
C711       Br718   1.931       .  S
C712       C1671   1.412   1_455  A
C712        C713   1.412       .  A
C713        C714   1.411       .  A
C713       Br720   1.931       .  S
C714       C1675   1.413   1_455  A
C714       Br719   1.931       .  S
C715       C1674   1.413       .  A
C715        C716   1.412       .  A
C716       Br717   1.931       .  S
N721        N722   1.321       .  A
N721        C725   1.345       .  A
N721       Cu729   2.085       .  S
N722        C723   1.344       .  A
N722       Cu728   2.063       .  S
C723        C724   1.384       .  A
C723        H726   1.081       .  S
C724        C725   1.390       .  A
C724        C745   1.484       .  S
C725        H727   1.081       .  S
Cu728       N731   2.063       .  S
Cu729       N739   2.085       .  S
Cu730       N732   2.080       .  S
Cu730       N738   2.080       .  S
N731        N732   1.321       .  A
N731        C735   1.344       .  A
N732        C733   1.345       .  A
C733        C734   1.388       .  A
C733        H736   1.082       .  S
C734        C735   1.384       .  A
C734        C747   1.480       .  S
C735        H737   1.082       .  S
N738        N739   1.323       .  A
N738        C742   1.346       .  A
N739        C740   1.347       .  A
C740        C741   1.386       .  A
C740        H743   1.082       .  S
C741        C742   1.385       .  A
C741        C952   1.487       .  S
C742        H744   1.082       .  S
C745        C750   1.408       .  A
C746        C747   1.403       .  A
C746        H751   1.082       .  S
C747        C748   1.405       .  A
C748        C749   1.402       .  A
C748        H752   1.084       .  S
C749        C855   1.468       .  S
C750        H753   1.083       .  S
N754        N755   1.321       .  A
N754        C758   1.345       .  A
N754       Cu762   2.086       .  S
N755        C756   1.344       .  A
N755       Cu761   2.061       .  S
C756        C757   1.384       .  A
C756        H759   1.081       .  S
C757        C758   1.390       .  A
C757        C780   1.483       .  S
C758        H760   1.081       .  S
Cu761       N764   2.061       .  S
Cu762       N772   2.086       .  S
Cu763       N765   2.081       .  S
Cu763       N771   2.081       .  S
N764        N765   1.321       .  A
N764        C768   1.344       .  A
N765        C766   1.345       .  A
C766        C767   1.388       .  A
C766        H769   1.082       .  S
C767        C768   1.383       .  A
C767        C778   1.480       .  S
C768        H770   1.082       .  S
N771        N772   1.323       .  A
N771        C775   1.346       .  A
N772        C773   1.348       .  A
C773        C774   1.387       .  A
C773        H776   1.082       .  S
C774        C775   1.385       .  A
C774        C955   1.488       .  S
C775        H777   1.082       .  S
C778        C779   1.403   1_556  A
C778        C783   1.405       .  A
C779        H784   1.082       .  S
C780        C781   1.408       .  A
C781        H785   1.083       .  S
C782        C783   1.401   1_554  A
C783        H786   1.084       .  S
N787        N788   1.322       .  A
N787        C791   1.346       .  A
N787       Cu795   2.086       .  S
N788        C789   1.344       .  A
N788       Cu794   2.063       .  S
C789        C790   1.384       .  A
C789        H792   1.082       .  S
C790        C791   1.389       .  A
C790        C815   1.482       .  S
C791        H793   1.082       .  S
Cu794       N797   2.063       .  S
Cu795       N805   2.087       .  S
Cu796       N798   2.083       .  S
Cu796       N804   2.083       .  S
N797        N798   1.321       .  A
N797        C801   1.345       .  A
N798        C799   1.344       .  A
C799        C800   1.389       .  A
C799        H802   1.082       .  S
C800        C801   1.384       .  A
C800        C811   1.482       .  S
C801        H803   1.082       .  S
N804        N805   1.323       .  A
N804        C808   1.347       .  A
N805        C806   1.348       .  A
C806        C807   1.385       .  A
C806        H809   1.082       .  S
C807        C808   1.384       .  A
C807        C942   1.484       .  S
C808        H810   1.082       .  S
C811        C812   1.407       .  A
C812        H817   1.083       .  S
C813        C814   1.402       .  A
C813        C929   1.468       .  S
C814        C815   1.406       .  A
C814        H818   1.083       .  S
C815        C816   1.403       .  A
C816        H819   1.082       .  S
N820        C824   1.346       .  A
N820       Cu828   2.088       .  S
N821        C822   1.343       .  A
N821       Cu827   2.061       .  S
C822        C823   1.383       .  A
C822        H825   1.082       .  S
C823        C846   1.483       .  S
C824        H826   1.082       .  S
Cu827       N830   2.061       .  S
Cu828       N838   2.088       .  S
Cu829       N831   2.083       .  S
Cu829       N837   2.084       .  S
N830        C834   1.344       .  A
N831        C832   1.345       .  A
C832        H835   1.081       .  S
C833        C834   1.385       .  A
C833        C844   1.483       .  S
C834        H836   1.082       .  S
N837        N838   1.324       .  A
N837        C841   1.347       .  A
N838        C839   1.348       .  A
C839        C840   1.385       .  A
C839        H842   1.082       .  S
C840        C841   1.384       .  A
C840        C945   1.485       .  S
C841        H843   1.082       .  S
C844        C845   1.404       .  A
C844        C849   1.407       .  A
C846        C847   1.407       .  A
C847        H851   1.083       .  S
C848        C849   1.403       .  A
C848        C857   1.469       .  S
C849        H852   1.083       .  S
C853        N854   1.365       .  A
C853        N858   1.366       .  A
C853        C885   1.477       .  S
N854        C855   1.360       .  A
C855        N856   1.350       .  A
N856        C857   1.351       .  A
C857        N858   1.361       .  A
N859        N860   1.321       .  A
N859        C863   1.346       .  A
N859       Cu867   2.092       .  S
N860        C861   1.344       .  A
N860       Cu866   2.060       .  S
C861        C862   1.386       .  A
C861        H864   1.081       .  S
C862        C863   1.393       .  A
C862        C887   1.490       .  S
C863        H865   1.081       .  S
Cu866       N869   2.060       .  S
Cu867       N877   2.092       .  S
Cu868       N870   2.089       .  S
Cu868       N876   2.089       .  S
N869        N870   1.321       .  A
N869        C873   1.344       .  A
N870        C871   1.345       .  A
C871        C872   1.393       .  A
C871        H874   1.080       .  S
C872        C873   1.386       .  A
C872        C883   1.490       .  S
C873        H875   1.081       .  S
N876        N877   1.323       .  A
N876        C880   1.348       .  A
N877        C878   1.348       .  A
C878        C879   1.387       .  A
C878        H881   1.082       .  S
C879        C880   1.386       .  A
C879        C932   1.490       .  S
C880        H882   1.082       .  S
C883        C884   1.410       .  A
C883        C888   1.405   1_556  A
C884        H889   1.082       .  S
C885        C886   1.403       .  A
C886        C887   1.410       .  A
C886        H890   1.082       .  S
C888        H891   1.077   1_554  S
N892        N893   1.320       .  A
N892        C896   1.345       .  A
N892       Cu900   2.090       .  S
N893        C894   1.344       .  A
N893       Cu899   2.060       .  S
C894        C895   1.386       .  A
C894        H897   1.081       .  S
C895        C896   1.394       .  A
C895        C916   1.491       .  S
C896        H898   1.080       .  S
Cu899       N902   2.060       .  S
Cu900       N910   2.090       .  S
Cu901       N903   2.092       .  S
Cu901       N909   2.092       .  S
N902        N903   1.321       .  A
N902        C906   1.344       .  A
N903        C904   1.346       .  A
C904        C905   1.394       .  A
C904        H907   1.081       .  S
C905        C906   1.386       .  A
C905        C918   1.491       .  S
C906        H908   1.081       .  S
N909        N910   1.323       .  A
N909        C913   1.349       .  A
N910        C911   1.348       .  A
C911        C912   1.387       .  A
C911        H914   1.082       .  S
C912        C913   1.387       .  A
C912        C935   1.491       .  S
C913        H915   1.082       .  S
C916        C921   1.410       .  A
C917        C918   1.405       .  A
C917        H922   1.078       .  S
C918        C919   1.410       .  A
C919        C920   1.403       .  A
C919        H923   1.082       .  S
C920        C925   1.477       .  S
C921        H924   1.082       .  S
C925        N926   1.366       .  A
C925        N930   1.366       .  A
N926        C927   1.361       .  A
C927        N928   1.350       .  A
N928        C929   1.350       .  A
C929        N930   1.361       .  A
C931        C932   1.413       .  A
C931        C936   1.413       .  A
C931       Br938   1.930       .  S
C932        C933   1.412       .  A
C933        C934   1.412       .  A
C933       Br940   1.931       .  S
C934        C935   1.413       .  A
C934       Br939   1.930       .  S
C935        C936   1.413       .  A
C936       Br937   1.931       .  S
C941        C942   1.411       .  A
C941        C946   1.411       .  A
C941       Br948   1.930       .  S
C942        C943   1.411       .  A
C943        C944   1.411       .  A
C944        C945   1.411       .  A
C945        C946   1.411       .  A
C946       Br947   1.929       .  S
C951       C1912   1.412       .  A
C951        C956   1.411       .  A
C951       Br958   1.931       .  S
C952       C1911   1.412   1_455  A
C952        C953   1.412       .  A
C953        C954   1.411       .  A
C953       Br960   1.931       .  S
C954       C1915   1.413   1_455  A
C954       Br959   1.931       .  S
C955       C1914   1.413       .  A
C955        C956   1.413       .  A
C956       Br957   1.931       .  S
N961        N962   1.321       .  A
N961        C965   1.345       .  A
N961       Cu969   2.085       .  S
N962        C963   1.344       .  A
N962       Cu968   2.061       .  S
C963        C964   1.384       .  A
C963        H966   1.081       .  S
C964        C965   1.390       .  A
C964        C985   1.483       .  S
C965        H967   1.081       .  S
Cu968       N971   2.061       .  S
Cu969       N979   2.085       .  S
Cu970       N972   2.080       .  S
Cu970       N978   2.080       .  S
N971        N972   1.321       .  A
N971        C975   1.344       .  A
N972        C973   1.345       .  A
C973        C974   1.388       .  A
C973        H976   1.082       .  S
C974        C975   1.384       .  A
C974        C987   1.480       .  S
C975        H977   1.082       .  S
N978        N979   1.323       .  A
N978        C982   1.346       .  A
N979        C980   1.347       .  A
C980        C981   1.387       .  A
C980        H983   1.082       .  S
C981        C982   1.385       .  A
C981       C1192   1.487       .  S
C982        H984   1.082       .  S
C985       C1226   1.404       .  A
C985        C990   1.408       .  A
C986       C1225   1.404   1_554  A
C986        C987   1.403       .  A
C986        H991   1.082       .  S
C987        C988   1.405       .  A
C988        C989   1.401       .  A
C988        H992   1.084       .  S
C989       C1230   1.402   1_554  A
C989       C1095   1.467   1_554  S
C990       C1229   1.402       .  A
C990        H993   1.083       .  S
N994        N995   1.321       .  A
N994        C998   1.345       .  A
N994      Cu1002   2.085       .  S
N995        C996   1.344       .  A
N995      Cu1001   2.062       .  S
C996        C997   1.384       .  A
C996        H999   1.081       .  S
C997        C998   1.389       .  A
C997       C1020   1.483       .  S
C998       H1000   1.081       .  S
Cu1001     N1004   2.062       .  S
Cu1002     N1012   2.085       .  S
Cu1003     N1005   2.080       .  S
Cu1003     N1011   2.081       .  S
N1004      N1005   1.321       .  A
N1004      C1008   1.344       .  A
N1005      C1006   1.345       .  A
C1006      C1007   1.388       .  A
C1006      H1009   1.082       .  S
C1007      C1008   1.384       .  A
C1007      C1018   1.480       .  S
C1008      H1010   1.082       .  S
N1011      N1012   1.323       .  A
N1011      C1015   1.346       .  A
N1012      C1013   1.348       .  A
C1013      C1014   1.387       .  A
C1013      H1016   1.082       .  S
C1014      C1015   1.385       .  A
C1014      C1195   1.488       .  S
C1015      H1017   1.082       .  S
C1018      C1019   1.403       .  A
C1018      C1023   1.405       .  A
C1019      C1260   1.404       .  A
C1019      H1024   1.082       .  S
C1020      C1259   1.404       .  A
C1020      C1021   1.408       .  A
C1021      C1262   1.403       .  A
C1021      H1025   1.083       .  S
C1022      C1261   1.403       .  A
C1022      C1023   1.402       .  A
C1022      C1407   1.468       .  S
C1023      H1026   1.084       .  S
N1027      N1028   1.322       .  A
N1027      C1031   1.346       .  A
N1027     Cu1035   2.087       .  S
N1028      C1029   1.343       .  A
N1028     Cu1034   2.062       .  S
C1029      C1030   1.383       .  A
C1029      H1032   1.082       .  S
C1030      C1031   1.389       .  A
C1030      C1055   1.482       .  S
C1031      H1033   1.082       .  S
Cu1034     N1037   2.062       .  S
Cu1035     N1045   2.087       .  S
Cu1036     N1038   2.083       .  S
Cu1036     N1044   2.084       .  S
N1037      N1038   1.321       .  A
N1037      C1041   1.344       .  A
N1038      C1039   1.345       .  A
C1039      C1040   1.389       .  A
C1039      H1042   1.081       .  S
C1040      C1041   1.384       .  A
C1040      C1051   1.482       .  S
C1041      H1043   1.082       .  S
N1044      N1045   1.323       .  A
N1044      C1048   1.347       .  A
N1045      C1046   1.348       .  A
C1046      C1047   1.385       .  A
C1046      H1049   1.082       .  S
C1047      C1048   1.384       .  A
C1047      C1182   1.485       .  S
C1048      H1050   1.082       .  S
C1051      C1052   1.407       .  A
C1051      C1296   1.404       .  A
C1052      C1293   1.403       .  A
C1052      H1057   1.083       .  S
C1053      C1292   1.403       .  A
C1053      C1054   1.402   1_556  A
C1053      C1169   1.468       .  S
C1054      C1055   1.406       .  A
C1054      H1058   1.083       .  S
C1055      C1056   1.403   1_554  A
C1056      C1291   1.404       .  A
C1056      H1059   1.082       .  S
N1060      N1541   1.322       .  A
N1060      C1064   1.346       .  A
N1060     Cu1068   2.088   1_565  S
N1061      N1540   1.322       .  A
N1061      C1062   1.344       .  A
N1061     Cu1067   2.062       .  S
C1062      C1063   1.384       .  A
C1062      H1065   1.082       .  S
C1063      C1544   1.390       .  A
C1063      C1086   1.483       .  S
C1064      C1543   1.390       .  A
C1064      H1066   1.082       .  S
Cu1067     N1070   2.062       .  S
Cu1068     N1078   2.088       .  S
Cu1069     N1071   2.083   1_545  S
Cu1069     N1077   2.084       .  S
N1070      N1551   1.321       .  A
N1070      C1074   1.344       .  A
N1071      N1550   1.321       .  A
N1071      C1072   1.345       .  A
C1072      C1553   1.389       .  A
C1072      H1075   1.081       .  S
C1073      C1552   1.389       .  A
C1073      C1074   1.385       .  A
C1073      C1084   1.483       .  S
C1074      H1076   1.082       .  S
N1077      N1078   1.323       .  A
N1077      C1081   1.347       .  A
N1078      C1079   1.348       .  A
C1079      C1080   1.385       .  A
C1079      H1082   1.082       .  S
C1080      C1081   1.384       .  A
C1080      C1185   1.485       .  S
C1081      H1083   1.082       .  S
C1084      C1085   1.404       .  A
C1084      C1089   1.407       .  A
C1085      C1326   1.403   1_554  A
C1085      H1570   1.082       .  S
C1086      C1325   1.403       .  A
C1086      C1087   1.407       .  A
C1087      C1328   1.402       .  A
C1087      H1091   1.083       .  S
C1088      C1327   1.402   1_554  A
C1088      C1089   1.403       .  A
C1088      C1097   1.469       .  S
C1089      H1092   1.083       .  S
H1090      C1565   1.082       .  S
C1093      N1094   1.365   1_554  A
C1093      N1098   1.366       .  A
C1093      C1125   1.477       .  S
N1094      C1095   1.360       .  A
C1095      N1096   1.350   1_556  A
N1096      C1097   1.350       .  A
C1097      N1098   1.362       .  A
N1099      N1100   1.320       .  A
N1099      C1103   1.344       .  A
N1099     Cu1107   2.091       .  S
N1100      C1101   1.343       .  A
N1100     Cu1106   2.054       .  S
C1101      C1102   1.385       .  A
C1101      H1104   1.081       .  S
C1102      C1103   1.394       .  A
C1102      C1127   1.489       .  S
C1103      H1105   1.080       .  S
Cu1106     N1109   2.055       .  S
Cu1107     N1117   2.091       .  S
Cu1108     N1110   2.090       .  S
Cu1108     N1116   2.090       .  S
N1109      N1110   1.320       .  A
N1109      C1113   1.343       .  A
N1110      C1111   1.344       .  A
C1111      C1112   1.394       .  A
C1111      H1114   1.080       .  S
C1112      C1113   1.385       .  A
C1112      C1123   1.489       .  S
C1113      H1115   1.081       .  S
N1116      N1117   1.323       .  A
N1116      C1120   1.349       .  A
N1117      C1118   1.348       .  A
C1118      C1119   1.387       .  A
C1118      H1121   1.082       .  S
C1119      C1120   1.387       .  A
C1119      C1172   1.490       .  S
C1120      H1122   1.082       .  S
C1123      C1124   1.410       .  A
C1123      C1128   1.404       .  A
C1124      C1365   1.403       .  A
C1124      H1129   1.081       .  S
C1125      C1364   1.403   1_554  A
C1125      C1126   1.404       .  A
C1126      C1127   1.410       .  A
C1126      H1130   1.082       .  S
C1127      C1368   1.403       .  A
C1128      C1367   1.403       .  A
C1128      H1131   1.077       .  S
N1132      N1133   1.320       .  A
N1132      C1136   1.345       .  A
N1132     Cu1140   2.091       .  S
N1133      C1134   1.343       .  A
N1133     Cu1139   2.055       .  S
C1134      C1135   1.385       .  A
C1134      H1137   1.081       .  S
C1135      C1136   1.394       .  A
C1135      C1156   1.489       .  S
C1136      H1138   1.080       .  S
Cu1139     N1142   2.055       .  S
Cu1140     N1150   2.091       .  S
Cu1141     N1143   2.090       .  S
Cu1141     N1149   2.090       .  S
N1142      N1143   1.320       .  A
N1142      C1146   1.343       .  A
N1143      C1144   1.344       .  A
C1144      C1145   1.394       .  A
C1144      H1147   1.080       .  S
C1145      C1146   1.385       .  A
C1145      C1158   1.489       .  S
C1146      H1148   1.081       .  S
N1149      N1150   1.323       .  A
N1149      C1153   1.348       .  A
N1150      C1151   1.348       .  A
C1151      C1152   1.387       .  A
C1151      H1154   1.082       .  S
C1152      C1153   1.387       .  A
C1152      C1175   1.491       .  S
C1153      H1155   1.082       .  S
C1156      C1397   1.404       .  A
C1156      C1161   1.410       .  A
C1157      C1396   1.403       .  A
C1157      C1158   1.403   1_556  A
C1157      H1162   1.077       .  S
C1158      C1159   1.410       .  A
C1159      C1160   1.403   1_554  A
C1159      H1163   1.081       .  S
C1160      C1401   1.404       .  A
C1160      C1165   1.477       .  S
C1161      C1400   1.403       .  A
C1161      H1164   1.082       .  S
C1165      N1166   1.365   1_556  A
C1165      N1170   1.366       .  A
N1166      C1167   1.360       .  A
C1167      N1168   1.350   1_554  A
C1167      C1262   1.468       .  S
N1168      C1169   1.350       .  A
C1169      N1170   1.361       .  A
C1171      C1172   1.413       .  A
C1171      C1176   1.413       .  A
C1171     Br1178   1.930       .  S
C1172      C1173   1.412       .  A
C1173      C1174   1.412       .  A
C1173     Br1180   1.931       .  S
C1174      C1175   1.413       .  A
C1174     Br1179   1.930       .  S
C1175      C1176   1.413       .  A
C1176     Br1177   1.931       .  S
C1181      C1182   1.411       .  A
C1181      C1186   1.411       .  A
C1181     Br1188   1.930       .  S
C1182      C1183   1.411       .  A
C1183      C1184   1.411       .  A
C1183     Br1670   1.929   1_545  S
C1184      C1185   1.411       .  A
C1184     Br1669   1.930   1_545  S
C1185      C1186   1.411       .  A
C1186     Br1187   1.929       .  S
Br1189     C1664   1.930       .  S
Br1190     C1663   1.929       .  S
C1191      C1196   1.411       .  A
C1191     Br1198   1.931       .  S
C1192      C1193   1.412       .  A
C1193      C1194   1.411       .  A
C1193     Br1200   1.931       .  S
C1194     Br1199   1.931       .  S
C1195      C1196   1.412       .  A
C1196     Br1197   1.931       .  S
N1201      N1202   1.321       .  A
N1201      C1205   1.345       .  A
N1201     Cu1209   2.085       .  S
N1202      C1203   1.344       .  A
N1202     Cu1208   2.062       .  S
C1203      C1204   1.384       .  A
C1203      H1206   1.081       .  S
C1204      C1205   1.390       .  A
C1204      C1225   1.483       .  S
C1205      H1207   1.081       .  S
Cu1208     N1211   2.062       .  S
Cu1209     N1219   2.085       .  S
Cu1210     N1212   2.080       .  S
Cu1210     N1218   2.080       .  S
N1211      N1212   1.321       .  A
N1211      C1215   1.344       .  A
N1212      C1213   1.345       .  A
C1213      C1214   1.388       .  A
C1213      H1216   1.082       .  S
C1214      C1215   1.384       .  A
C1214      C1227   1.480       .  S
C1215      H1217   1.082       .  S
N1218      N1219   1.323       .  A
N1218      C1222   1.346       .  A
N1219      C1220   1.347       .  A
C1220      C1221   1.387       .  A
C1220      H1223   1.082       .  S
C1221      C1222   1.385       .  A
C1221      C1432   1.487       .  S
C1222      H1224   1.082       .  S
C1225      C1230   1.408       .  A
C1226      C1227   1.403       .  A
C1226      H1231   1.082       .  S
C1227      C1228   1.405       .  A
C1228      C1229   1.401       .  A
C1228      H1232   1.084       .  S
C1229      C1335   1.467       .  S
C1230      H1233   1.083       .  S
N1234      N1235   1.321       .  A
N1234      C1238   1.345       .  A
N1234     Cu1242   2.085       .  S
N1235      C1236   1.344       .  A
N1235     Cu1241   2.062       .  S
C1236      C1237   1.384       .  A
C1236      H1239   1.081       .  S
C1237      C1238   1.390       .  A
C1237      C1260   1.483       .  S
C1238      H1240   1.081       .  S
Cu1241     N1244   2.061       .  S
Cu1242     N1252   2.086       .  S
Cu1243     N1245   2.080       .  S
Cu1243     N1251   2.081       .  S
N1244      N1245   1.321       .  A
N1244      C1248   1.344       .  A
N1245      C1246   1.345       .  A
C1246      C1247   1.388       .  A
C1246      H1249   1.082       .  S
C1247      C1248   1.383       .  A
C1247      C1258   1.480       .  S
C1248      H1250   1.082       .  S
N1251      N1252   1.323       .  A
N1251      C1255   1.346       .  A
N1252      C1253   1.348       .  A
C1253      C1254   1.387       .  A
C1253      H1256   1.082       .  S
C1254      C1255   1.385       .  A
C1254      C1435   1.488       .  S
C1255      H1257   1.082       .  S
C1258      C1259   1.403   1_556  A
C1258      C1263   1.405       .  A
C1259      H1264   1.082       .  S
C1260      C1261   1.408       .  A
C1261      H1265   1.083       .  S
C1262      C1263   1.401   1_554  A
C1263      H1266   1.084       .  S
N1267      N1268   1.322       .  A
N1267      C1271   1.346       .  A
N1267     Cu1275   2.087       .  S
N1268      C1269   1.344       .  A
N1268     Cu1274   2.062       .  S
C1269      C1270   1.384       .  A
C1269      H1272   1.082       .  S
C1270      C1271   1.389       .  A
C1270      C1295   1.482       .  S
C1271      H1273   1.082       .  S
Cu1274     N1277   2.062       .  S
Cu1275     N1285   2.087       .  S
Cu1276     N1278   2.083       .  S
Cu1276     N1284   2.083       .  S
N1277      N1278   1.321       .  A
N1277      C1281   1.344       .  A
N1278      C1279   1.345       .  A
C1279      C1280   1.389       .  A
C1279      H1282   1.081       .  S
C1280      C1281   1.385       .  A
C1280      C1291   1.482       .  S
C1281      H1283   1.082       .  S
N1284      N1285   1.323       .  A
N1284      C1288   1.347       .  A
N1285      C1286   1.348       .  A
C1286      C1287   1.385       .  A
C1286      H1289   1.082       .  S
C1287      C1288   1.384       .  A
C1287      C1422   1.484       .  S
C1288      H1290   1.082       .  S
C1291      C1292   1.407       .  A
C1292      H1297   1.083       .  S
C1293      C1294   1.402       .  A
C1293      C1409   1.468       .  S
C1294      C1295   1.406       .  A
C1294      H1298   1.083       .  S
C1295      C1296   1.403       .  A
C1296      H1299   1.082       .  S
N1300      N1781   1.322       .  A
N1300      C1304   1.346       .  A
N1300     Cu1308   2.087   1_565  S
N1301      N1780   1.322       .  A
N1301      C1302   1.343       .  A
N1301     Cu1307   2.061       .  S
C1302      C1303   1.383       .  A
C1302      H1305   1.082       .  S
C1303      C1784   1.390       .  A
C1303      C1326   1.483       .  S
C1304      C1783   1.390       .  A
C1304      H1306   1.082       .  S
Cu1307     N1310   2.061       .  S
Cu1308     N1318   2.088       .  S
Cu1309     N1311   2.083   1_545  S
Cu1309     N1317   2.084       .  S
N1310      N1791   1.321       .  A
N1310      C1314   1.344       .  A
N1311      N1790   1.321       .  A
N1311      C1312   1.345       .  A
C1312      C1793   1.389       .  A
C1312      H1315   1.081       .  S
C1313      C1792   1.389       .  A
C1313      C1314   1.385       .  A
C1313      C1324   1.483       .  S
C1314      H1316   1.082       .  S
N1317      N1318   1.324       .  A
N1317      C1321   1.347       .  A
N1318      C1319   1.348       .  A
C1319      C1320   1.385       .  A
C1319      H1322   1.082       .  S
C1320      C1321   1.384       .  A
C1320      C1425   1.485       .  S
C1321      H1323   1.082       .  S
C1324      C1325   1.404       .  A
C1324      C1329   1.407       .  A
C1325      H1810   1.082       .  S
C1326      C1327   1.407       .  A
C1327      H1331   1.083       .  S
C1328      C1329   1.403       .  A
C1328      C1337   1.469       .  S
C1329      H1332   1.083       .  S
H1330      C1805   1.082       .  S
C1333      N1334   1.365       .  A
C1333      N1338   1.366       .  A
C1333      C1365   1.477       .  S
N1334      C1335   1.360       .  A
C1335      N1336   1.350       .  A
N1336      C1337   1.350       .  A
C1337      N1338   1.362       .  A
N1339      N1340   1.321       .  A
N1339      C1343   1.345       .  A
N1339     Cu1347   2.091       .  S
N1340      C1341   1.343       .  A
N1340     Cu1346   2.055       .  S
C1341      C1342   1.385       .  A
C1341      H1344   1.081       .  S
C1342      C1343   1.394       .  A
C1342      C1367   1.489       .  S
C1343      H1345   1.080       .  S
Cu1346     N1349   2.055       .  S
Cu1347     N1357   2.091       .  S
Cu1348     N1350   2.089       .  S
Cu1348     N1356   2.089       .  S
N1349      N1350   1.320       .  A
N1349      C1353   1.343       .  A
N1350      C1351   1.344       .  A
C1351      C1352   1.393       .  A
C1351      H1354   1.080       .  S
C1352      C1353   1.385       .  A
C1352      C1363   1.489       .  S
C1353      H1355   1.081       .  S
N1356      N1357   1.323       .  A
N1356      C1360   1.348       .  A
N1357      C1358   1.348       .  A
C1358      C1359   1.387       .  A
C1358      H1361   1.082       .  S
C1359      C1360   1.386       .  A
C1359      C1412   1.490       .  S
C1360      H1362   1.082       .  S
C1363      C1364   1.410       .  A
C1363      C1368   1.403   1_556  A
C1364      H1369   1.082       .  S
C1365      C1366   1.403       .  A
C1366      C1367   1.410       .  A
C1366      H1370   1.082       .  S
C1368      H1371   1.076       .  S
N1372      N1373   1.320       .  A
N1372      C1376   1.344       .  A
N1372     Cu1380   2.090       .  S
N1373      C1374   1.344       .  A
N1373     Cu1379   2.055       .  S
C1374      C1375   1.385       .  A
C1374      H1377   1.081       .  S
C1375      C1376   1.394       .  A
C1375      C1396   1.489       .  S
C1376      H1378   1.080       .  S
Cu1379     N1382   2.055       .  S
Cu1380     N1390   2.090       .  S
Cu1381     N1383   2.091       .  S
Cu1381     N1389   2.091       .  S
N1382      N1383   1.320       .  A
N1382      C1386   1.343       .  A
N1383      C1384   1.345       .  A
C1384      C1385   1.394       .  A
C1384      H1387   1.080       .  S
C1385      C1386   1.385       .  A
C1385      C1398   1.490       .  S
C1386      H1388   1.081       .  S
N1389      N1390   1.323       .  A
N1389      C1393   1.348       .  A
N1390      C1391   1.348       .  A
C1391      C1392   1.387       .  A
C1391      H1394   1.082       .  S
C1392      C1393   1.387       .  A
C1392      C1415   1.491       .  S
C1393      H1395   1.082       .  S
C1396      C1401   1.410       .  A
C1397      C1398   1.404       .  A
C1397      H1402   1.077       .  S
C1398      C1399   1.410       .  A
C1399      C1400   1.403       .  A
C1399      H1403   1.081       .  S
C1400      C1405   1.477       .  S
C1401      H1404   1.082       .  S
C1405      N1406   1.365       .  A
C1405      N1410   1.366       .  A
N1406      C1407   1.361       .  A
C1407      N1408   1.350       .  A
N1408      C1409   1.350       .  A
C1409      N1410   1.361       .  A
C1411      C1412   1.413       .  A
C1411      C1416   1.413       .  A
C1411     Br1418   1.930       .  S
C1412      C1413   1.412       .  A
C1413      C1414   1.412       .  A
C1413     Br1420   1.931       .  S
C1414      C1415   1.413       .  A
C1414     Br1419   1.930       .  S
C1415      C1416   1.413       .  A
C1416     Br1417   1.931       .  S
C1421      C1422   1.411       .  A
C1421      C1426   1.411       .  A
C1421     Br1428   1.930       .  S
C1422      C1423   1.411       .  A
C1423      C1424   1.411       .  A
C1423     Br1910   1.929   1_545  S
C1424      C1425   1.411       .  A
C1424     Br1909   1.930   1_545  S
C1425      C1426   1.411       .  A
C1426     Br1427   1.929       .  S
Br1429     C1904   1.930       .  S
Br1430     C1903   1.929       .  S
C1431      C1436   1.411       .  A
C1431     Br1438   1.931       .  S
C1432      C1433   1.412       .  A
C1433      C1434   1.411       .  A
C1433     Br1440   1.931       .  S
C1434     Br1439   1.931       .  S
C1435      C1436   1.413       .  A
C1436     Br1437   1.931       .  S
N1441      N1442   1.321       .  A
N1441      C1445   1.345       .  A
N1441     Cu1449   2.085       .  S
N1442      C1443   1.344       .  A
N1442     Cu1448   2.061       .  S
C1443      C1444   1.384       .  A
C1443      H1446   1.081       .  S
C1444      C1445   1.390       .  A
C1444      C1465   1.483       .  S
C1445      H1447   1.081       .  S
Cu1448     N1451   2.061       .  S
Cu1449     N1459   2.086       .  S
Cu1450     N1452   2.080       .  S
Cu1450     N1458   2.081       .  S
N1451      N1452   1.321       .  A
N1451      C1455   1.344       .  A
N1452      C1453   1.345       .  A
C1453      C1454   1.388       .  A
C1453      H1456   1.082       .  S
C1454      C1455   1.383       .  A
C1454      C1467   1.480       .  S
C1455      H1457   1.082       .  S
N1458      N1459   1.323       .  A
N1458      C1462   1.346       .  A
N1459      C1460   1.348       .  A
C1460      C1461   1.387       .  A
C1460      H1463   1.082       .  S
C1461      C1462   1.385       .  A
C1461      C1672   1.488       .  S
C1462      H1464   1.082       .  S
C1465      C1706   1.404       .  A
C1465      C1470   1.408       .  A
C1466      C1705   1.404   1_554  A
C1466      C1467   1.403       .  A
C1466      H1471   1.082       .  S
C1467      C1468   1.405       .  A
C1468      C1469   1.401       .  A
C1468      H1472   1.084       .  S
C1469      C1710   1.402   1_554  A
C1469      C1575   1.467       .  S
C1470      C1709   1.402       .  A
C1470      H1473   1.083       .  S
N1474      N1475   1.321       .  A
N1474      C1478   1.345       .  A
N1474     Cu1482   2.085       .  S
N1475      C1476   1.344       .  A
N1475     Cu1481   2.063       .  S
C1476      C1477   1.384       .  A
C1476      H1479   1.081       .  S
C1477      C1478   1.389       .  A
C1477      C1500   1.483       .  S
C1478      H1480   1.081       .  S
Cu1481     N1484   2.063       .  S
Cu1482     N1492   2.085       .  S
Cu1483     N1485   2.081       .  S
Cu1483     N1491   2.081       .  S
N1484      N1485   1.321       .  A
N1484      C1488   1.344       .  A
N1485      C1486   1.345       .  A
C1486      C1487   1.388       .  A
C1486      H1489   1.082       .  S
C1487      C1488   1.384       .  A
C1487      C1498   1.480       .  S
C1488      H1490   1.082       .  S
N1491      N1492   1.323       .  A
N1491      C1495   1.346       .  A
N1492      C1493   1.348       .  A
C1493      C1494   1.387       .  A
C1493      H1496   1.082       .  S
C1494      C1495   1.385       .  A
C1494      C1675   1.488       .  S
C1495      H1497   1.082       .  S
C1498      C1499   1.403       .  A
C1498      C1503   1.405       .  A
C1499      C1740   1.404       .  A
C1499      H1504   1.082       .  S
C1500      C1739   1.404       .  A
C1500      C1501   1.408       .  A
C1501      C1742   1.403       .  A
C1501      H1505   1.083       .  S
C1502      C1741   1.403       .  A
C1502      C1503   1.402       .  A
C1502      C1887   1.468       .  S
C1503      H1506   1.084       .  S
N1507      N1508   1.322       .  A
N1507      C1511   1.346       .  A
N1507     Cu1515   2.086       .  S
N1508      C1509   1.343       .  A
N1508     Cu1514   2.061       .  S
C1509      C1510   1.383       .  A
C1509      H1512   1.082       .  S
C1510      C1511   1.389       .  A
C1510      C1535   1.482       .  S
C1511      H1513   1.082       .  S
Cu1514     N1517   2.061       .  S
Cu1515     N1525   2.087       .  S
Cu1516     N1518   2.083       .  S
Cu1516     N1524   2.083       .  S
N1517      N1518   1.321       .  A
N1517      C1521   1.344       .  A
N1518      C1519   1.345       .  A
C1519      C1520   1.389       .  A
C1519      H1522   1.081       .  S
C1520      C1521   1.384       .  A
C1520      C1531   1.482       .  S
C1521      H1523   1.082       .  S
N1524      N1525   1.323       .  A
N1524      C1528   1.347       .  A
N1525      C1526   1.348       .  A
C1526      C1527   1.385       .  A
C1526      H1529   1.082       .  S
C1527      C1528   1.384       .  A
C1527      C1662   1.484       .  S
C1528      H1530   1.082       .  S
C1531      C1532   1.407       .  A
C1531      C1776   1.404       .  A
C1532      C1773   1.402       .  A
C1532      H1537   1.083       .  S
C1533      C1772   1.403       .  A
C1533      C1534   1.401   1_556  A
C1533      C1649   1.468       .  S
C1534      C1535   1.406       .  A
C1534      H1538   1.083       .  S
C1535      C1536   1.403   1_554  A
C1536      C1771   1.404       .  A
C1536      H1539   1.082       .  S
N1540      C1544   1.346       .  A
N1540     Cu1548   2.088       .  S
N1541      C1542   1.344       .  A
N1541     Cu1547   2.062       .  S
C1542      C1543   1.384       .  A
C1542      H1545   1.082       .  S
C1543      C1566   1.483       .  S
C1544      H1546   1.082       .  S
Cu1547     N1550   2.062       .  S
Cu1548     N1558   2.088       .  S
Cu1549     N1551   2.083       .  S
Cu1549     N1557   2.084       .  S
N1550      C1554   1.344       .  A
N1551      C1552   1.345       .  A
C1552      H1555   1.081       .  S
C1553      C1554   1.385       .  A
C1553      C1564   1.483       .  S
C1554      H1556   1.082       .  S
N1557      N1558   1.323       .  A
N1557      C1561   1.347       .  A
N1558      C1559   1.348       .  A
C1559      C1560   1.385       .  A
C1559      H1562   1.082       .  S
C1560      C1561   1.384       .  A
C1560      C1665   1.485       .  S
C1561      H1563   1.082       .  S
C1564      C1565   1.404       .  A
C1564      C1569   1.407       .  A
C1565      C1806   1.403   1_554  A
C1566      C1805   1.403       .  A
C1566      C1567   1.406       .  A
C1567      C1808   1.402       .  A
C1567      H1571   1.083       .  S
C1568      C1807   1.402   1_554  A
C1568      C1569   1.403       .  A
C1568      C1577   1.469       .  S
C1569      H1572   1.083       .  S
C1573      N1574   1.365       .  A
C1573      N1578   1.366       .  A
C1573      C1605   1.477       .  S
N1574      C1575   1.360       .  A
C1575      N1576   1.350       .  A
N1576      C1577   1.350       .  A
C1577      N1578   1.361       .  A
N1579      N1580   1.321       .  A
N1579      C1583   1.345       .  A
N1579     Cu1587   2.091       .  S
N1580      C1581   1.344       .  A
N1580     Cu1586   2.059       .  S
C1581      C1582   1.386       .  A
C1581      H1584   1.081       .  S
C1582      C1583   1.394       .  A
C1582      C1607   1.491       .  S
C1583      H1585   1.080       .  S
Cu1586     N1589   2.060       .  S
Cu1587     N1597   2.091       .  S
Cu1588     N1590   2.091       .  S
Cu1588     N1596   2.091       .  S
N1589      N1590   1.321       .  A
N1589      C1593   1.344       .  A
N1590      C1591   1.345       .  A
C1591      C1592   1.394       .  A
C1591      H1594   1.080       .  S
C1592      C1593   1.386       .  A
C1592      C1603   1.491       .  S
C1593      H1595   1.081       .  S
N1596      N1597   1.323       .  A
N1596      C1600   1.349       .  A
N1597      C1598   1.348       .  A
C1598      C1599   1.387       .  A
C1598      H1601   1.082       .  S
C1599      C1600   1.387       .  A
C1599      C1652   1.490       .  S
C1600      H1602   1.082       .  S
C1603      C1604   1.410       .  A
C1603      C1608   1.405       .  A
C1604      C1845   1.403       .  A
C1604      H1609   1.082       .  S
C1605      C1844   1.403   1_554  A
C1605      C1606   1.404       .  A
C1606      C1607   1.410       .  A
C1606      H1610   1.081       .  S
C1607      C1848   1.405       .  A
C1608      C1847   1.405       .  A
C1608      H1611   1.077       .  S
N1612      N1613   1.321       .  A
N1612      C1616   1.345       .  A
N1612     Cu1620   2.091       .  S
N1613      C1614   1.344       .  A
N1613     Cu1619   2.060       .  S
C1614      C1615   1.386       .  A
C1614      H1617   1.081       .  S
C1615      C1616   1.393       .  A
C1615      C1636   1.490       .  S
C1616      H1618   1.081       .  S
Cu1619     N1622   2.060       .  S
Cu1620     N1630   2.091       .  S
Cu1621     N1623   2.090       .  S
Cu1621     N1629   2.090       .  S
N1622      N1623   1.321       .  A
N1622      C1626   1.344       .  A
N1623      C1624   1.345       .  A
C1624      C1625   1.394       .  A
C1624      H1627   1.080       .  S
C1625      C1626   1.386       .  A
C1625      C1638   1.491       .  S
C1626      H1628   1.081       .  S
N1629      N1630   1.323       .  A
N1629      C1633   1.348       .  A
N1630      C1631   1.348       .  A
C1631      C1632   1.387       .  A
C1631      H1634   1.082       .  S
C1632      C1633   1.387       .  A
C1632      C1655   1.491       .  S
C1633      H1635   1.082       .  S
C1636      C1877   1.405       .  A
C1636      C1641   1.410       .  A
C1637      C1876   1.405       .  A
C1637      C1638   1.405   1_556  A
C1637      H1642   1.077       .  S
C1638      C1639   1.410       .  A
C1639      C1640   1.403   1_554  A
C1639      H1643   1.082       .  S
C1640      C1881   1.403       .  A
C1640      C1645   1.477       .  S
C1641      C1880   1.403       .  A
C1641      H1644   1.082       .  S
C1645      N1646   1.366   1_556  A
C1645      N1650   1.366       .  A
N1646      C1647   1.361       .  A
C1647      N1648   1.350   1_554  A
C1647      C1742   1.468       .  S
N1648      C1649   1.350       .  A
C1649      N1650   1.361       .  A
C1651      C1652   1.412       .  A
C1651      C1656   1.413       .  A
C1651     Br1658   1.930       .  S
C1652      C1653   1.412       .  A
C1653      C1654   1.412       .  A
C1653     Br1660   1.931       .  S
C1654      C1655   1.413       .  A
C1654     Br1659   1.930       .  S
C1655      C1656   1.413       .  A
C1656     Br1657   1.931       .  S
C1661      C1662   1.411       .  A
C1661      C1666   1.411       .  A
C1661     Br1668   1.930       .  S
C1662      C1663   1.411       .  A
C1663      C1664   1.411       .  A
C1664      C1665   1.411       .  A
C1665      C1666   1.411       .  A
C1666     Br1667   1.929       .  S
C1671      C1676   1.411       .  A
C1671     Br1678   1.931       .  S
C1672      C1673   1.412       .  A
C1673      C1674   1.411       .  A
C1673     Br1680   1.931       .  S
C1674     Br1679   1.931       .  S
C1675      C1676   1.412       .  A
C1676     Br1677   1.931       .  S
N1681      N1682   1.321       .  A
N1681      C1685   1.345       .  A
N1681     Cu1689   2.085       .  S
N1682      C1683   1.344       .  A
N1682     Cu1688   2.063       .  S
C1683      C1684   1.384       .  A
C1683      H1686   1.081       .  S
C1684      C1685   1.390       .  A
C1684      C1705   1.484       .  S
C1685      H1687   1.081       .  S
Cu1688     N1691   2.063       .  S
Cu1689     N1699   2.085       .  S
Cu1690     N1692   2.080       .  S
Cu1690     N1698   2.080       .  S
N1691      N1692   1.321       .  A
N1691      C1695   1.344       .  A
N1692      C1693   1.345       .  A
C1693      C1694   1.388       .  A
C1693      H1696   1.082       .  S
C1694      C1695   1.384       .  A
C1694      C1707   1.480       .  S
C1695      H1697   1.082       .  S
N1698      N1699   1.323       .  A
N1698      C1702   1.346       .  A
N1699      C1700   1.347       .  A
C1700      C1701   1.386       .  A
C1700      H1703   1.082       .  S
C1701      C1702   1.385       .  A
C1701      C1912   1.487       .  S
C1702      H1704   1.082       .  S
C1705      C1710   1.408       .  A
C1706      C1707   1.403       .  A
C1706      H1711   1.082       .  S
C1707      C1708   1.405       .  A
C1708      C1709   1.402       .  A
C1708      H1712   1.084       .  S
C1709      C1815   1.468       .  S
C1710      H1713   1.083       .  S
N1714      N1715   1.321       .  A
N1714      C1718   1.345       .  A
N1714     Cu1722   2.086       .  S
N1715      C1716   1.344       .  A
N1715     Cu1721   2.061       .  S
C1716      C1717   1.384       .  A
C1716      H1719   1.081       .  S
C1717      C1718   1.390       .  A
C1717      C1740   1.483       .  S
C1718      H1720   1.081       .  S
Cu1721     N1724   2.061       .  S
Cu1722     N1732   2.086       .  S
Cu1723     N1725   2.081       .  S
Cu1723     N1731   2.081       .  S
N1724      N1725   1.321       .  A
N1724      C1728   1.344       .  A
N1725      C1726   1.345       .  A
C1726      C1727   1.388       .  A
C1726      H1729   1.082       .  S
C1727      C1728   1.383       .  A
C1727      C1738   1.480       .  S
C1728      H1730   1.082       .  S
N1731      N1732   1.323       .  A
N1731      C1735   1.346       .  A
N1732      C1733   1.348       .  A
C1733      C1734   1.387       .  A
C1733      H1736   1.082       .  S
C1734      C1735   1.385       .  A
C1734      C1915   1.488       .  S
C1735      H1737   1.082       .  S
C1738      C1739   1.403   1_556  A
C1738      C1743   1.405       .  A
C1739      H1744   1.082       .  S
C1740      C1741   1.408       .  A
C1741      H1745   1.083       .  S
C1742      C1743   1.401   1_554  A
C1743      H1746   1.084       .  S
N1747      N1748   1.322       .  A
N1747      C1751   1.346       .  A
N1747     Cu1755   2.086       .  S
N1748      C1749   1.344       .  A
N1748     Cu1754   2.063       .  S
C1749      C1750   1.384       .  A
C1749      H1752   1.082       .  S
C1750      C1751   1.389       .  A
C1750      C1775   1.482       .  S
C1751      H1753   1.082       .  S
Cu1754     N1757   2.063       .  S
Cu1755     N1765   2.087       .  S
Cu1756     N1758   2.083       .  S
Cu1756     N1764   2.083       .  S
N1757      N1758   1.321       .  A
N1757      C1761   1.345       .  A
N1758      C1759   1.344       .  A
C1759      C1760   1.389       .  A
C1759      H1762   1.082       .  S
C1760      C1761   1.384       .  A
C1760      C1771   1.482       .  S
C1761      H1763   1.082       .  S
N1764      N1765   1.323       .  A
N1764      C1768   1.347       .  A
N1765      C1766   1.348       .  A
C1766      C1767   1.385       .  A
C1766      H1769   1.082       .  S
C1767      C1768   1.384       .  A
C1767      C1902   1.484       .  S
C1768      H1770   1.082       .  S
C1771      C1772   1.407       .  A
C1772      H1777   1.083       .  S
C1773      C1774   1.402       .  A
C1773      C1889   1.468       .  S
C1774      C1775   1.406       .  A
C1774      H1778   1.083       .  S
C1775      C1776   1.403       .  A
C1776      H1779   1.082       .  S
N1780      C1784   1.346       .  A
N1780     Cu1788   2.088       .  S
N1781      C1782   1.343       .  A
N1781     Cu1787   2.061       .  S
C1782      C1783   1.383       .  A
C1782      H1785   1.081       .  S
C1783      C1806   1.483       .  S
C1784      H1786   1.081       .  S
Cu1787     N1790   2.061       .  S
Cu1788     N1798   2.088       .  S
Cu1789     N1791   2.083       .  S
Cu1789     N1797   2.084       .  S
N1790      C1794   1.344       .  A
N1791      C1792   1.345       .  A
C1792      H1795   1.081       .  S
C1793      C1794   1.385       .  A
C1793      C1804   1.483       .  S
C1794      H1796   1.082       .  S
N1797      N1798   1.324       .  A
N1797      C1801   1.347       .  A
N1798      C1799   1.348       .  A
C1799      C1800   1.385       .  A
C1799      H1802   1.082       .  S
C1800      C1801   1.384       .  A
C1800      C1905   1.485       .  S
C1801      H1803   1.082       .  S
C1804      C1805   1.404       .  A
C1804      C1809   1.407       .  A
C1806      C1807   1.407       .  A
C1807      H1811   1.083       .  S
C1808      C1809   1.403       .  A
C1808      C1817   1.469       .  S
C1809      H1812   1.083       .  S
C1813      N1814   1.365       .  A
C1813      N1818   1.366       .  A
C1813      C1845   1.477       .  S
N1814      C1815   1.360       .  A
C1815      N1816   1.350       .  A
N1816      C1817   1.351       .  A
C1817      N1818   1.361       .  A
N1819      N1820   1.321       .  A
N1819      C1823   1.345       .  A
N1819     Cu1827   2.092       .  S
N1820      C1821   1.344       .  A
N1820     Cu1826   2.060       .  S
C1821      C1822   1.385       .  A
C1821      H1824   1.081       .  S
C1822      C1823   1.393       .  A
C1822      C1847   1.490       .  S
C1823      H1825   1.081       .  S
Cu1826     N1829   2.060       .  S
Cu1827     N1837   2.092       .  S
Cu1828     N1830   2.089       .  S
Cu1828     N1836   2.089       .  S
N1829      N1830   1.321       .  A
N1829      C1833   1.344       .  A
N1830      C1831   1.345       .  A
C1831      C1832   1.393       .  A
C1831      H1834   1.080       .  S
C1832      C1833   1.386       .  A
C1832      C1843   1.490       .  S
C1833      H1835   1.081       .  S
N1836      N1837   1.323       .  A
N1836      C1840   1.348       .  A
N1837      C1838   1.348       .  A
C1838      C1839   1.387       .  A
C1838      H1841   1.082       .  S
C1839      C1840   1.386       .  A
C1839      C1892   1.490       .  S
C1840      H1842   1.082       .  S
C1843      C1844   1.410       .  A
C1843      C1848   1.405   1_556  A
C1844      H1849   1.082       .  S
C1845      C1846   1.403       .  A
C1846      C1847   1.410       .  A
C1846      H1850   1.082       .  S
C1848      H1851   1.077   1_554  S
N1852      N1853   1.320       .  A
N1852      C1856   1.345       .  A
N1852     Cu1860   2.090       .  S
N1853      C1854   1.344       .  A
N1853     Cu1859   2.060       .  S
C1854      C1855   1.386       .  A
C1854      H1857   1.081       .  S
C1855      C1856   1.394       .  A
C1855      C1876   1.491       .  S
C1856      H1858   1.080       .  S
Cu1859     N1862   2.060       .  S
Cu1860     N1870   2.090       .  S
Cu1861     N1863   2.092       .  S
Cu1861     N1869   2.092       .  S
N1862      N1863   1.321       .  A
N1862      C1866   1.344       .  A
N1863      C1864   1.346       .  A
C1864      C1865   1.394       .  A
C1864      H1867   1.081       .  S
C1865      C1866   1.386       .  A
C1865      C1878   1.491       .  S
C1866      H1868   1.081       .  S
N1869      N1870   1.323       .  A
N1869      C1873   1.349       .  A
N1870      C1871   1.348       .  A
C1871      C1872   1.387       .  A
C1871      H1874   1.082       .  S
C1872      C1873   1.387       .  A
C1872      C1895   1.491       .  S
C1873      H1875   1.082       .  S
C1876      C1881   1.410       .  A
C1877      C1878   1.405       .  A
C1877      H1882   1.078       .  S
C1878      C1879   1.410       .  A
C1879      C1880   1.403       .  A
C1879      H1883   1.082       .  S
C1880      C1885   1.477       .  S
C1881      H1884   1.081       .  S
C1885      N1886   1.366       .  A
C1885      N1890   1.366       .  A
N1886      C1887   1.361       .  A
C1887      N1888   1.350       .  A
N1888      C1889   1.350       .  A
C1889      N1890   1.361       .  A
C1891      C1892   1.413       .  A
C1891      C1896   1.413       .  A
C1891     Br1898   1.930       .  S
C1892      C1893   1.412       .  A
C1893      C1894   1.412       .  A
C1893     Br1900   1.931       .  S
C1894      C1895   1.413       .  A
C1894     Br1899   1.930       .  S
C1895      C1896   1.413       .  A
C1896     Br1897   1.931       .  S
C1901      C1902   1.411       .  A
C1901      C1906   1.411       .  A
C1901     Br1908   1.930       .  S
C1902      C1903   1.411       .  A
C1903      C1904   1.411       .  A
C1904      C1905   1.411       .  A
C1905      C1906   1.411       .  A
C1906     Br1907   1.929       .  S
C1911      C1916   1.411       .  A
C1911     Br1918   1.931       .  S
C1912      C1913   1.412       .  A
C1913      C1914   1.411       .  A
C1913     Br1920   1.931       .  S
C1914     Br1919   1.931       .  S
C1915      C1916   1.413       .  A
C1916     Br1917   1.931       .  S
