geometry optimzed in LAMMPS
_audit_creation_date              2020-12-01 
_audit_creation_method            'lammps2cif' 
_symmetry_space_group_name_H-M    'P1' 
_symmetry_Int_Tables_number       1 
_symmetry_cell_setting            triclinic 
loop_ 
_symmetry_equiv_pos_as_xyz 
  x,y,z 
_cell_length_a                    44.71540488 
_cell_length_b                    44.71974275522 
_cell_length_c                    33.87393548871993 
_cell_angle_alpha                 89.9731503360105 
_cell_angle_beta                  89.93408633781527 
_cell_angle_gamma                 121.42637520775092 
loop_ 
_atom_site_label 
_atom_site_type_symbol 
_atom_site_fract_x 
_atom_site_fract_y 
_atom_site_fract_z 
_atom_site_charge 
C1          C  0.34664513  0.14793616  0.94634129     0.81800
N2          N  0.36489108  0.18349986  0.94746463    -0.76500
C3          C  0.34767596  0.20095057  0.95116400     0.84200
N4          N  0.31214012  0.18278798  0.95346874    -0.76500
C5          C  0.29384536  0.14721031  0.95242596     0.84300
N6          N  0.31111896  0.12981559  0.94872043    -0.78200
C7          C  0.34846825  0.14974957  0.31442671     0.81800
N8          N  0.31290209  0.13149604  0.31327239    -0.76500
C9          C  0.29544323  0.14870060  0.30957394     0.84200
N10         N  0.31359985  0.18423363  0.30730304    -0.76500
C11         C  0.34917990  0.20253642  0.30837706     0.84300
N12         N  0.36658299  0.18527333  0.31208124    -0.78200
C13         C  0.14136545  0.35679005  0.81471753     0.81800
N14         N  0.12311961  0.32122724  0.81356058    -0.76500
C15         C  0.14033269  0.30377980  0.80979471     0.84200
N16         N  0.17586723  0.32194505  0.80745652    -0.76500
C17         C  0.19416201  0.35752225  0.80853200     0.84300
N18         N  0.17688987  0.37491311  0.81230405    -0.78200
C19         C  0.13954476  0.35501622  0.44619268     0.81800
N20         N  0.12143075  0.31949439  0.44857595    -0.76500
C21         C  0.13883302  0.30223638  0.45235352     0.84200
N22         N  0.17441255  0.32054273  0.45346353    -0.76500
C23         C  0.19256872  0.35607432  0.45115575     0.84300
N24         N  0.17510999  0.37327313  0.44738394    -0.78200
C25         C  0.12073130  0.06415485  0.92900851     0.44000
N26         N  0.07741202  0.04760527  0.88973789     0.02900
C27         C  0.41396840  0.02229677  0.92819557    -0.05000
H28         H  0.44469742  0.44475079  0.01517485     0.08400
C29         C  0.44880287  0.38666151  0.88395720    -0.05300
Co30       Co  0.01899524  0.05172147  0.92678764     0.74200
N31         N  0.47326995  0.48574644  0.97211081    -0.24500
Co32       Co  0.44141794  0.47101358  0.92193541     0.74100
C33         C  0.43420532  0.37382616  0.92304047     0.44100
N34         N  0.01745380  0.45660993  0.83227295     0.02500
N35         N  0.44286273  0.42531074  0.91555790     0.02600
N36         N  0.46519788  0.07454856  0.93126791    -0.45400
H37         H  0.09256646  0.07429264  0.97944328     0.08400
N38         N  0.00286564  0.01643057  0.97399727     0.02900
N39         N  0.41059797  0.45713955  0.87115728     0.02600
C40         C  0.36728350  0.44060850  0.83188306     0.44200
N41         N  0.04693599  0.48739254  0.83415789    -0.24000
C42         C  0.03918177  0.11806003  0.87693168    -0.04900
N43         N  0.10965456  0.05358588  0.89180833    -0.45100
N44         N  0.37835987  0.45117082  0.86908512    -0.45300
C45         C  0.05377743  0.13089535  0.83784714     0.44000
N46         N  0.47055183  0.04811587  0.92864889     0.02900
N47         N  0.01474818  0.01897135  0.78877695    -0.24000
N48         N  0.06697492  0.05446147  0.92319955    -0.24500
N49         N  0.48515051  0.48828921  0.78689030     0.02500
H50         H  0.04335746  0.05993529  0.74568996     0.08400
H51         H  0.39544288  0.43046355  0.78144678     0.08500
N52         N  0.44106996  0.01733365  0.92676581    -0.24500
N53         N  0.45328895  0.41867609  0.88194643    -0.24100
N54         N  0.04513058  0.07941457  0.84533339     0.02900
C55         C  0.49744611  0.49393031  0.03146136     0.44300
C56         C  0.07403658  0.48242585  0.83278342    -0.05400
N57         N  0.42103328  0.45028153  0.83769428    -0.24100
H58         H  0.45337412  0.37336175  0.86020078     0.08400
N59         N  0.01787460  0.02259492  0.00922452    -0.45400
H60         H  0.10148434  0.50271195  0.83383069     0.08400
C61         C  0.49061310  0.01075293  0.72939578     0.44100
C62         C  0.09279087  0.06527687  0.94988442    -0.04900
Co63       Co  0.04658892  0.03371641  0.83896355     0.73800
N64         N  0.02280774  0.43017426  0.82971025    -0.45100
C65         C  0.43015858  0.06010832  0.93107542     0.44400
N66         N  0.05746958  0.10597496  0.82011815    -0.45100
Co67       Co  0.46900942  0.45300712  0.83411007     0.73900
C68         C  0.39522003  0.43947771  0.81100736    -0.05400
C69         C  0.46762306  0.46959209  0.00718106    -0.05000
N70         N  0.03470320  0.08604865  0.87894551    -0.24500
N71         N  0.43051870  0.39874886  0.94077151    -0.45300
H72         H  0.38651975  0.00200829  0.92717749     0.08400
C73         C  0.02041957  0.03510496  0.75368910    -0.05400
Cl74       Cl  0.49400407  0.00236558  0.88044734    -0.48400
C75         C  0.05784671  0.44461270  0.82993962     0.44200
H76         H  0.03460948  0.13135946  0.90068797     0.08400
N77         N  0.47016712  0.48210489  0.75164595    -0.45100
C78         C  0.50232251  0.49878452  0.22936838     0.44000
N79         N  0.47987003  0.49343835  0.28686264     0.02900
C80         C  0.05697899  0.10121340  0.44973979    -0.05000
H81         H  0.12302634  0.04298669  0.40048530     0.08400
C82         C  0.01392155  0.42236530  0.42805492    -0.05300
Co83       Co  0.02535312  0.05492180  0.33885458     0.74200
N84         N  0.07769899  0.04305437  0.37878067    -0.24500
Co85       Co  0.04339961  0.02739760  0.42666111     0.74100
C86         C  0.05173825  0.43853652  0.43084919     0.44100
N87         N  0.44871685  0.41897871  0.37117515     0.02500
N88         N  0.03976993  0.47894582  0.42851045     0.02600
N89         N  0.04526008  0.11803145  0.39167434    -0.45400
H90         H  0.05153842  0.05153022  0.24558205     0.08400
N91         N  0.07105085  0.05345646  0.34517616     0.02900
N92         N  0.00815132  0.01132317  0.47392874     0.02600
C93         C  0.48573645  0.00593107  0.53145646     0.44200
N94         N  0.44184656  0.42939048  0.33771983    -0.24000
C95         C  0.47409336  0.08240557  0.33263850    -0.04900
N96         N  0.47366932  0.47839524  0.25164529    -0.45100
N97         N  0.01437435  0.02633820  0.50916477    -0.45300
C98         C  0.43627858  0.06623287  0.32980454     0.44000
N99         N  0.03928033  0.08579102  0.38961002     0.02900
N100        N  0.41031665  0.46173164  0.38200611    -0.24000
N101        N  0.01056616  0.02301973  0.28870442    -0.24500
N102        N  0.41696496  0.45132986  0.41561195     0.02500
H103        H  0.36499273  0.46180790  0.36030479     0.08400
H104        H  0.43652353  0.45319225  0.51523496     0.08500
N105        N  0.04615222  0.07537985  0.42306606    -0.24500
N106        N  0.00897364  0.44947486  0.42667305    -0.24100
N107        N  0.44824468  0.02582536  0.33224121     0.02900
C108        C  0.12253686  0.06210364  0.33764414     0.44300
C109        C  0.43101030  0.40355438  0.31104787    -0.05400
N110        N  0.47745873  0.48174245  0.47208669    -0.24100
H111        H  0.99362080  0.39492305  0.42704735     0.08400
N112        N  0.09760631  0.06578174  0.31993875    -0.45400
H113        H  0.42198562  0.40375917  0.28149553     0.08400
C114        C  0.36548288  0.44269400  0.42314804     0.44100
C115        C  0.02669402  0.02862230  0.25361233    -0.04900
Co116      Co  0.44461233  0.47737549  0.33411957     0.73800
N117        N  0.44272769  0.38673476  0.36911344    -0.45100
C118        C  0.05584728  0.12913521  0.42886416     0.44400
N119        N  0.42182008  0.03119442  0.32964267    -0.45100
Co120      Co  0.46265896  0.44985168  0.42192570     0.73900
C121        C  0.46135455  0.47611346  0.50719820    -0.05400
C122        C  0.10971385  0.04753430  0.37673841    -0.05000
N123        N  0.47903983  0.05529678  0.33407834    -0.24500
N124        N  0.06619669  0.47357508  0.43104902    -0.45300
H125        H  0.06600277  0.10100952  0.47929230     0.08400
C126        C  0.37830504  0.45725954  0.38405159    -0.05400
Cl127      Cl  0.49400408  0.00238736  0.38039108    -0.48400
C128        C  0.43213536  0.37563017  0.33192533     0.44200
H129        H  0.49439482  0.10984815  0.33361677     0.08400
N130        N  0.39041151  0.43901105  0.44085170    -0.45100
C131        C  0.48753728  0.01208848  0.68705681    -0.17000
C132        C  0.48570840  0.01205059  0.65138759     0.07100
C133        C  0.48451006  0.01086602  0.60947217     0.09000
C134        C  0.48444610  0.00903257  0.57380068    -0.17800
C135        C  0.50364362  0.49564635  0.18703614    -0.17000
C136        C  0.50359415  0.49379142  0.15136872     0.07100
C137        C  0.50239511  0.49259873  0.10945602     0.09000
C138        C  0.50055126  0.49256961  0.07379009    -0.17800
C139        C  0.07163347  0.16512797  0.44078983    -0.17000
C140        C  0.08604548  0.19612725  0.44745263     0.07100
C141        C  0.10390669  0.23294941  0.45187307     0.09000
C142        C  0.11968218  0.26455187  0.45322374    -0.17800
C143        C  0.23026160  0.37538245  0.45082657    -0.17000
C144        C  0.26183789  0.39157113  0.44856578     0.07100
C145        C  0.29860531  0.41024785  0.44322216     0.09000
C146        C  0.32955581  0.42559384  0.43587640    -0.17800
C147        C  0.07107595  0.42105966  0.43296892    -0.17000
C148        C  0.08704829  0.40615151  0.43517923     0.07100
C149        C  0.10551144  0.38846972  0.43849029     0.09000
C150        C  0.12109848  0.37324807  0.44186453    -0.17800
C151        C  0.07086402  0.16681672  0.82513281    -0.17000
C152        C  0.08619644  0.19776049  0.81778519     0.07100
C153        C  0.10485839  0.23452033  0.81242909     0.09000
C154        C  0.12103639  0.26609145  0.81015155    -0.17800
C155        C  0.23184971  0.37668650  0.80762015    -0.17000
C156        C  0.26345647  0.39248174  0.80893349     0.07100
C157        C  0.30028532  0.41037084  0.81331523     0.09000
C158        C  0.33128994  0.42480492  0.81995819    -0.17800
C159        C  0.12311940  0.37522604  0.81902735    -0.17000
C160        C  0.10789161  0.39081078  0.82237754     0.07100
C161        C  0.09020986  0.40927769  0.82565596     0.09000
C162        C  0.07530819  0.42525867  0.82784106    -0.17800
C163        C  0.36691480  0.13151252  0.31868881    -0.17000
C164        C  0.38250294  0.11628987  0.32203490     0.07100
C165        C  0.40096830  0.09861121  0.32535400     0.09000
C166        C  0.41694231  0.08370728  0.32760600    -0.17800
C167        C  0.36833115  0.24022069  0.30753542    -0.17000
C168        C  0.38410086  0.27182206  0.30890010     0.07100
C169        C  0.40195128  0.30864214  0.31332928     0.09000
C170        C  0.41635480  0.33963957  0.31999663    -0.17800
C171        C  0.25775128  0.12939565  0.30993150    -0.17000
C172        C  0.22617628  0.11321169  0.31220695     0.07100
C173        C  0.18941087  0.09454136  0.31756086     0.09000
C174        C  0.15846205  0.07920024  0.32491245    -0.17800
C175        C  0.41269756  0.07945931  0.93325011    -0.17000
C176        C  0.39779858  0.09544060  0.93547632     0.07100
C177        C  0.38011972  0.11390947  0.93876470     0.09000
C178        C  0.36489254  0.12949663  0.94209069    -0.17800
C179        C  0.36697241  0.23863822  0.95077987    -0.17000
C180        C  0.38314648  0.27020810  0.94848653     0.07100
C181        C  0.40180066  0.30696578  0.94311717     0.09000
C182        C  0.41712572  0.33790740  0.93576093    -0.17800
C183        C  0.15672287  0.07995550  0.94093754    -0.17000
C184        C  0.18772547  0.09438249  0.94758741     0.07100
C185        C  0.22455212  0.11226100  0.95198127     0.09000
C186        C  0.25615780  0.12804903  0.95331011    -0.17800
C187        C  0.34664318  0.64793639  0.94634344     0.81800
N188        N  0.36488928  0.68350008  0.94746644    -0.76500
C189        C  0.34767428  0.70095104  0.95116387     0.84200
N190        N  0.31213834  0.68278867  0.95346707    -0.76500
C191        C  0.29384340  0.64721097  0.95242461     0.84300
N192        N  0.31111693  0.62981603  0.94872101    -0.78200
C193        C  0.34847038  0.64975052  0.31442595     0.81800
N194        N  0.31290420  0.63149716  0.31327161    -0.76500
C195        C  0.29544555  0.64870189  0.30957253     0.84200
N196        N  0.31360240  0.68423487  0.30730093    -0.76500
C197        C  0.34918243  0.70253746  0.30837494     0.84300
N198        N  0.36658531  0.68527423  0.31207978    -0.78200
C199        C  0.14137037  0.85679157  0.81471729     0.81800
N200        N  0.12312441  0.82122871  0.81356262    -0.76500
C201        C  0.14033724  0.80378092  0.80979705     0.84200
N202        N  0.17587169  0.82194588  0.80745680    -0.76500
C203        C  0.19416661  0.85752314  0.80852998     0.84300
N204        N  0.17689469  0.87491432  0.81230178    -0.78200
C205        C  0.13954288  0.85501638  0.44619196     0.81800
N206        N  0.12142946  0.81949457  0.44857541    -0.76500
C207        C  0.13883237  0.80223722  0.45235331     0.84200
N208        N  0.17441189  0.82054419  0.45346340    -0.76500
C209        C  0.19256742  0.85607573  0.45115542     0.84300
N210        N  0.17510810  0.87327390  0.44738329    -0.78200
C211        C  0.12072853  0.56415282  0.92900790     0.44000
N212        N  0.07740856  0.54760291  0.88973814     0.02900
C213        C  0.41396673  0.52229750  0.92819910    -0.05000
H214        H  0.44470052  0.94475142  0.01517360     0.08400
C215        C  0.44880803  0.88666227  0.88395839    -0.05300
Co216      Co  0.01899291  0.55172057  0.92678887     0.74200
N217        N  0.47327269  0.98574744  0.97210988    -0.24500
Co218      Co  0.44142113  0.97101383  0.92193404     0.74100
C219        C  0.43420955  0.87382698  0.92304143     0.44100
N220        N  0.01745975  0.95661202  0.83227400     0.02500
N221        N  0.44286690  0.92531144  0.91555777     0.02600
N222        N  0.46519630  0.57454866  0.93127120    -0.45400
H223        H  0.09256469  0.57429173  0.97944389     0.08400
N224        N  0.00286322  0.51642941  0.97399804     0.02900
N225        N  0.41060172  0.95713885  0.87115547     0.02600
C226        C  0.36728769  0.94060728  0.83188038     0.44200
N227        N  0.04694111  0.98739529  0.83415834    -0.24000
C228        C  0.03918093  0.61806010  0.87693441    -0.04900
N229        N  0.10965120  0.55358359  0.89180787    -0.45100
N230        N  0.37836361  0.95116998  0.86908237    -0.45300
C231        C  0.05377716  0.63089587  0.83785016     0.44000
N232        N  0.47054983  0.54811577  0.92865119     0.02900
N233        N  0.01474430  0.51897131  0.78877784    -0.24000
N234        N  0.06697216  0.55445962  0.92319996    -0.24500
N235        N  0.48515496  0.98828872  0.78688983     0.02500
H236        H  0.04335516  0.55993530  0.74569130     0.08400
H237        H  0.39544792  0.93046264  0.78144638     0.08500
N238        N  0.44106771  0.51733374  0.92676825    -0.24500
N239        N  0.45329428  0.91867690  0.88194703    -0.24100
N240        N  0.04512837  0.57941410  0.84533492     0.02900
C241        C  0.49744861  0.99393144  0.03146059     0.44300
C242        C  0.07403849  0.98242588  0.83278374    -0.05400
N243        N  0.42103765  0.95028053  0.83769310    -0.24100
H244        H  0.45337971  0.87336237  0.86020242     0.08400
N245        N  0.01787234  0.52259378  0.00922520    -0.45400
H246        H  0.10148126  0.00270770  0.83383012     0.08400
C247        C  0.49061033  0.51075419  0.72939635     0.44100
C248        C  0.09278847  0.56527524  0.94988466    -0.04900
Co249      Co  0.04658513  0.53371478  0.83896411     0.73800
N250        N  0.02281543  0.93017763  0.82971166    -0.45100
C251        C  0.43015707  0.56010883  0.93107956     0.44400
N252        N  0.05746841  0.60597515  0.82012042    -0.45100
Co253      Co  0.46901474  0.95300752  0.83411009     0.73900
C254        C  0.39522465  0.93947658  0.81100615    -0.05400
C255        C  0.46762584  0.96959305  0.00718009    -0.05000
N256        N  0.03470126  0.58604819  0.87894723    -0.24500
N257        N  0.43052241  0.89874967  0.94077159    -0.45300
H258        H  0.38651840  0.50200960  0.92718149     0.08400
C259        C  0.02041657  0.53510546  0.75369023    -0.05400
Cl260      Cl  0.49400041  0.50236492  0.88044811    -0.48400
C261        C  0.05785377  0.94461584  0.82994077     0.44200
H262        H  0.03460932  0.63135962  0.90069131     0.08400
N263        N  0.47017082  0.98210376  0.75164588    -0.45100
C264        C  0.50232297  0.99878417  0.22936770     0.44000
N265        N  0.47986943  0.99343798  0.28686138     0.02900
C266        C  0.05698289  0.60121456  0.44974005    -0.05000
H267        H  0.12302932  0.54298850  0.40048343     0.08400
C268        C  0.01391908  0.92236473  0.42805546    -0.05300
Co269      Co  0.02535481  0.55492238  0.33885507     0.74200
N270        N  0.07770136  0.54305511  0.37877966    -0.24500
Co271      Co  0.04340264  0.52739844  0.42666078     0.74100
C272        C  0.05173571  0.93853603  0.43085055     0.44100
N273        N  0.44871553  0.91897830  0.37117370     0.02500
N274        N  0.03976720  0.97894516  0.42851121     0.02600
N275        N  0.04526280  0.61803231  0.39167455    -0.45400
H276        H  0.05153760  0.55152982  0.24558228     0.08400
N277        N  0.07105271  0.55345713  0.34517541     0.02900
N278        N  0.00815508  0.51132427  0.47392912     0.02600
C279        C  0.48574065  0.50593286  0.53145693     0.44200
N280        N  0.44184574  0.92939021  0.33771815    -0.24000
C281        C  0.47409533  0.58240647  0.33264020    -0.04900
N282        N  0.47366937  0.97839481  0.25164408    -0.45100
N283        N  0.01437844  0.52633967  0.50916498    -0.45300
C284        C  0.43628048  0.56623385  0.32980693     0.44000
N285        N  0.03928299  0.58579184  0.38961028     0.02900
N286        N  0.41031465  0.96173076  0.38200346    -0.24000
N287        N  0.01056684  0.52302006  0.28870523    -0.24500
N288        N  0.41696258  0.95132897  0.41560954     0.02500
H289        H  0.36499119  0.96180774  0.36030149     0.08400
H290        H  0.43651916  0.95318975  0.51523393     0.08500
N291        N  0.04615544  0.57538087  0.42306610    -0.24500
N292        N  0.00897101  0.94947414  0.42667325    -0.24100
N293        N  0.44824629  0.52582614  0.33224351     0.02900
C294        C  0.12253907  0.56210533  0.33764265     0.44300
C295        C  0.43101102  0.90355461  0.31104610    -0.05400
N296        N  0.47745513  0.98174126  0.47208589    -0.24100
H297        H  0.99361850  0.89492253  0.42704744     0.08400
N298        N  0.09760804  0.56578297  0.31993776    -0.45400
H299        H  0.42198736  0.90375964  0.28149387     0.08400
C300        C  0.36548083  0.94269390  0.42314504     0.44100
C301        C  0.02669379  0.52862230  0.25361284    -0.04900
Co302      Co  0.44461101  0.97737486  0.33411758     0.73800
N303        N  0.44272741  0.88673478  0.36911168    -0.45100
C304        C  0.05585074  0.62913626  0.42886420     0.44400
N305        N  0.42182177  0.53119536  0.32964531    -0.45100
Co306      Co  0.46265641  0.94985084  0.42192453     0.73900
C307        C  0.46135040  0.97611159  0.50719735    -0.05400
C308        C  0.10971640  0.54753563  0.37673682    -0.05000
N309        N  0.47904155  0.55529748  0.33408004    -0.24500
N310        N  0.06619401  0.97357456  0.43105044    -0.45300
H311        H  0.06600731  0.60101082  0.47929289     0.08400
C312        C  0.37830320  0.95725910  0.38404851    -0.05400
Cl313      Cl  0.49400622  0.50238803  0.38039190    -0.48400
C314        C  0.43213632  0.87563061  0.33192324     0.44200
H315        H  0.49439703  0.60984913  0.33361796     0.08400
N316        N  0.39040911  0.93901071  0.44084916    -0.45100
C317        C  0.48753608  0.51208994  0.68705720    -0.17000
C318        C  0.48570910  0.51205267  0.65138785     0.07100
C319        C  0.48451273  0.51086856  0.60947238     0.09000
C320        C  0.48444991  0.50903505  0.57380095    -0.17800
C321        C  0.50364474  0.99564591  0.18703547    -0.17000
C322        C  0.50359584  0.99379114  0.15136804     0.07100
C323        C  0.50239734  0.99259892  0.10945527     0.09000
C324        C  0.50055377  0.99257031  0.07378932    -0.17800
C325        C  0.07163645  0.66512898  0.44078982    -0.17000
C326        C  0.08604771  0.69612820  0.44745264     0.07100
C327        C  0.10390776  0.73295030  0.45187307     0.09000
C328        C  0.11968231  0.76455274  0.45322366    -0.17800
C329        C  0.23026024  0.87538441  0.45082604    -0.17000
C330        C  0.26183646  0.89157319  0.44856469     0.07100
C331        C  0.29860369  0.91024955  0.44322021     0.09000
C332        C  0.32955399  0.92559487  0.43587373    -0.17800
C333        C  0.07107352  0.92105930  0.43296977    -0.17000
C334        C  0.08704584  0.90615111  0.43517945     0.07100
C335        C  0.10550892  0.88846924  0.43848985     0.09000
C336        C  0.12109608  0.87324769  0.44186377    -0.17800
C337        C  0.07086533  0.66681767  0.82513707    -0.17000
C338        C  0.08619894  0.69776161  0.81779021     0.07100
C339        C  0.10486199  0.73452147  0.81243420     0.09000
C340        C  0.12104067  0.76609255  0.81015580    -0.17800
C341        C  0.23185433  0.87668721  0.80761652    -0.17000
C342        C  0.26346111  0.89248213  0.80892922     0.07100
C343        C  0.30028992  0.91037070  0.81331101     0.09000
C344        C  0.33129443  0.92480421  0.81995441    -0.17800
C345        C  0.12312467  0.87522796  0.81902701    -0.17000
C346        C  0.10789759  0.89081331  0.82237729     0.07100
C347        C  0.09021685  0.90928091  0.82565615     0.09000
C348        C  0.07531708  0.92526369  0.82784178    -0.17800
C349        C  0.36691679  0.63151341  0.31868866    -0.17000
C350        C  0.38250503  0.61629091  0.32203530     0.07100
C351        C  0.40097047  0.59861239  0.32535510     0.09000
C352        C  0.41694442  0.58370842  0.32760772    -0.17800
C353        C  0.36833388  0.74022167  0.30753272    -0.17000
C354        C  0.38410371  0.77182302  0.30889714     0.07100
C355        C  0.40195393  0.80864305  0.31332631     0.09000
C356        C  0.41635692  0.83964036  0.31999396    -0.17800
C357        C  0.25775357  0.62939725  0.30992997    -0.17000
C358        C  0.22617856  0.61321369  0.31220526     0.07100
C359        C  0.18941310  0.59454372  0.31755905     0.09000
C360        C  0.15846426  0.57920250  0.32491067    -0.17800
C361        C  0.41269629  0.57945999  0.93325520    -0.17000
C362        C  0.39779723  0.59544119  0.93548172     0.07100
C363        C  0.38011804  0.61390975  0.93876972     0.09000
C364        C  0.36489062  0.62949676  0.94209468    -0.17800
C365        C  0.36697117  0.73863870  0.95077976    -0.17000
C366        C  0.38314636  0.77020860  0.94848660     0.07100
C367        C  0.40180223  0.80696635  0.94311755     0.09000
C368        C  0.41712869  0.83790805  0.93576154    -0.17800
C369        C  0.15672055  0.57995438  0.94093582    -0.17000
C370        C  0.18772331  0.59438214  0.94758521     0.07100
C371        C  0.22455007  0.61226141  0.95197873     0.09000
C372        C  0.25615578  0.62804978  0.95330781    -0.17800
C373        C  0.84664511  0.14793616  0.94634129     0.81800
N374        N  0.86489106  0.18349986  0.94746463    -0.76500
C375        C  0.84767595  0.20095057  0.95116400     0.84200
N376        N  0.81214010  0.18278798  0.95346873    -0.76500
C377        C  0.79384534  0.14721031  0.95242596     0.84300
N378        N  0.81111894  0.12981560  0.94872043    -0.78200
C379        C  0.84846827  0.14974960  0.31442671     0.81800
N380        N  0.81290210  0.13149605  0.31327238    -0.76500
C381        C  0.79544323  0.14870060  0.30957394     0.84200
N382        N  0.81359984  0.18423362  0.30730304    -0.76500
C383        C  0.84917989  0.20253643  0.30837707     0.84300
N384        N  0.86658299  0.18527336  0.31208124    -0.78200
C385        C  0.64136543  0.35679006  0.81471753     0.81800
N386        N  0.62311959  0.32122725  0.81356057    -0.76500
C387        C  0.64033269  0.30377982  0.80979471     0.84200
N388        N  0.67586723  0.32194508  0.80745652    -0.76500
C389        C  0.69416201  0.35752227  0.80853201     0.84300
N390        N  0.67688985  0.37491312  0.81230405    -0.78200
C391        C  0.63954480  0.35501621  0.44619267     0.81800
N392        N  0.62143078  0.31949439  0.44857594    -0.76500
C393        C  0.63883306  0.30223638  0.45235352     0.84200
N394        N  0.67441259  0.32054273  0.45346355    -0.76500
C395        C  0.69256877  0.35607431  0.45115578     0.84300
N396        N  0.67511004  0.37327312  0.44738395    -0.78200
C397        C  0.62073129  0.06415487  0.92900852     0.44000
N398        N  0.57741202  0.04760529  0.88973790     0.02900
C399        C  0.91396839  0.02229676  0.92819556    -0.05000
H400        H  0.94469718  0.44475040  0.01517495     0.08400
C401        C  0.94880291  0.38666153  0.88395720    -0.05300
Co402      Co  0.51899524  0.05172150  0.92678763     0.74200
N403        N  0.97327002  0.48574645  0.97211083    -0.24500
Co404      Co  0.94141800  0.47101358  0.92193540     0.74100
C405        C  0.93420539  0.37382616  0.92304046     0.44100
N406        N  0.51745374  0.45660992  0.83227295     0.02500
N407        N  0.94286279  0.42531074  0.91555789     0.02600
N408        N  0.96519787  0.07454854  0.93126792    -0.45400
H409        H  0.59256645  0.07429265  0.97944328     0.08400
N410        N  0.50286565  0.01643061  0.97399727     0.02900
N411        N  0.91059801  0.45713954  0.87115725     0.02600
C412        C  0.86728352  0.44060845  0.83188302     0.44200
N413        N  0.54693594  0.48739253  0.83415788    -0.24000
C414        C  0.53918181  0.11806002  0.87693162    -0.04900
N415        N  0.60965456  0.05358589  0.89180834    -0.45100
N416        N  0.87835990  0.45117078  0.86908507    -0.45300
C417        C  0.55377748  0.13089538  0.83784714     0.44000
N418        N  0.97055182  0.04811586  0.92864891     0.02900
N419        N  0.51474817  0.01897136  0.78877694    -0.24000
N420        N  0.56697492  0.05446150  0.92319955    -0.24500
N421        N  0.98515055  0.48828921  0.78689030     0.02500
H422        H  0.54335735  0.05993529  0.74568996     0.08400
H423        H  0.89544295  0.43046351  0.78144684     0.08500
N424        N  0.94106995  0.01733364  0.92676582    -0.24500
N425        N  0.95328901  0.41867609  0.88194642    -0.24100
N426        N  0.54513060  0.07941459  0.84533339     0.02900
C427        C  0.99744616  0.49393035  0.03146136     0.44300
C428        C  0.57403652  0.48242584  0.83278342    -0.05400
N429        N  0.92103333  0.45028151  0.83769427    -0.24100
H430        H  0.95337413  0.37336178  0.86020080     0.08400
N431        N  0.51787462  0.02259501  0.00922454    -0.45400
H432        H  0.60148429  0.50271193  0.83383070     0.08400
C433        C  0.99061316  0.01075293  0.72939577     0.44100
C434        C  0.59279085  0.06527689  0.94988442    -0.04900
Co435      Co  0.54658893  0.03371644  0.83896354     0.73800
N436        N  0.52280768  0.43017425  0.82971024    -0.45100
C437        C  0.93015857  0.06010832  0.93107542     0.44400
N438        N  0.55746961  0.10597498  0.82011817    -0.45100
Co439      Co  0.96900947  0.45300712  0.83411007     0.73900
C440        C  0.89522008  0.43947768  0.81100736    -0.05400
C441        C  0.96762298  0.46959197  0.00718111    -0.05000
N442        N  0.53470318  0.08604865  0.87894549    -0.24500
N443        N  0.93051877  0.39874887  0.94077150    -0.45300
H444        H  0.88651974  0.00200829  0.92717748     0.08400
C445        C  0.52041950  0.03510496  0.75368910    -0.05400
Cl446      Cl  0.99400406  0.00236556  0.88044734    -0.48400
C447        C  0.55784666  0.44461269  0.82993962     0.44200
H448        H  0.53460953  0.13135940  0.90068781     0.08400
N449        N  0.97016715  0.48210490  0.75164596    -0.45100
C450        C  0.00232256  0.49878452  0.22936840     0.44000
N451        N  0.97987004  0.49343834  0.28686264     0.02900
C452        C  0.55697894  0.10121338  0.44973980    -0.05000
H453        H  0.62302637  0.04298665  0.40048537     0.08400
C454        C  0.51392154  0.42236525  0.42805493    -0.05300
Co455      Co  0.52535313  0.05492181  0.33885458     0.74200
N456        N  0.57769901  0.04305437  0.37878068    -0.24500
Co457      Co  0.54339963  0.02739760  0.42666112     0.74100
C458        C  0.55173827  0.43853650  0.43084919     0.44100
N459        N  0.94871684  0.41897871  0.37117515     0.02500
N460        N  0.53976995  0.47894580  0.42851044     0.02600
N461        N  0.54526007  0.11803144  0.39167434    -0.45400
H462        H  0.55153838  0.05153016  0.24558205     0.08400
N463        N  0.57105085  0.05345644  0.34517616     0.02900
N464        N  0.50815134  0.01132316  0.47392875     0.02600
C465        C  0.98573646  0.00593107  0.53145645     0.44200
N466        N  0.94184654  0.42939048  0.33771983    -0.24000
C467        C  0.97409338  0.08240562  0.33263852    -0.04900
N468        N  0.97366937  0.47839522  0.25164530    -0.45100
N469        N  0.51437434  0.02633818  0.50916479    -0.45300
C470        C  0.93627855  0.06623282  0.32980454     0.44000
N471        N  0.53928035  0.08579103  0.38961002     0.02900
N472        N  0.91031664  0.46173164  0.38200610    -0.24000
N473        N  0.51056615  0.02301973  0.28870443    -0.24500
N474        N  0.91696496  0.45132987  0.41561195     0.02500
H475        H  0.86499278  0.46180787  0.36030499     0.08400
H476        H  0.93652307  0.45319175  0.51523517     0.08500
N477        N  0.54615222  0.07537985  0.42306607    -0.24500
N478        N  0.50897365  0.44947484  0.42667305    -0.24100
N479        N  0.94824466  0.02582532  0.33224117     0.02900
C480        C  0.62253687  0.06210362  0.33764416     0.44300
C481        C  0.93101036  0.40355439  0.31104792    -0.05400
N482        N  0.97745873  0.48174247  0.47208673    -0.24100
H483        H  0.49362076  0.39492293  0.42704737     0.08400
N484        N  0.59760631  0.06578174  0.31993876    -0.45400
H485        H  0.92198568  0.40375915  0.28149569     0.08400
C486        C  0.86548288  0.44269402  0.42314808     0.44100
C487        C  0.52669399  0.02862227  0.25361234    -0.04900
Co488      Co  0.94461231  0.47737548  0.33411955     0.73800
N489        N  0.94272773  0.38673478  0.36911343    -0.45100
C490        C  0.55584723  0.12913520  0.42886417     0.44400
N491        N  0.92182003  0.03119435  0.32964264    -0.45100
Co492      Co  0.96265897  0.44985169  0.42192570     0.73900
C493        C  0.96135434  0.47611328  0.50719828    -0.05400
C494        C  0.60971387  0.04753429  0.37673844    -0.05000
N495        N  0.97903980  0.05529675  0.33407833    -0.24500
N496        N  0.56619671  0.47357507  0.43104901    -0.45300
H497        H  0.56600270  0.10100951  0.47929233     0.08400
C498        C  0.87830506  0.45725952  0.38405168    -0.05400
Cl499      Cl  0.99400407  0.00238735  0.38039109    -0.48400
C500        C  0.93213540  0.37563019  0.33192532     0.44200
H501        H  0.99439493  0.10984836  0.33361682     0.08400
N502        N  0.89041152  0.43901109  0.44085170    -0.45100
C503        C  0.98753738  0.01208846  0.68705679    -0.17000
C504        C  0.98570849  0.01205059  0.65138758     0.07100
C505        C  0.98451015  0.01086602  0.60947217     0.09000
C506        C  0.98444612  0.00903257  0.57380068    -0.17800
C507        C  0.00364368  0.49564635  0.18703615    -0.17000
C508        C  0.00359421  0.49379142  0.15136873     0.07100
C509        C  0.00239518  0.49259876  0.10945603     0.09000
C510        C  0.00055133  0.49256967  0.07379010    -0.17800
C511        C  0.57163343  0.16512796  0.44078983    -0.17000
C512        C  0.58604548  0.19612725  0.44745262     0.07100
C513        C  0.60390671  0.23294940  0.45187306     0.09000
C514        C  0.61968224  0.26455187  0.45322373    -0.17800
C515        C  0.73026165  0.37538244  0.45082666    -0.17000
C516        C  0.76183793  0.39157112  0.44856587     0.07100
C517        C  0.79860533  0.41024786  0.44322227     0.09000
C518        C  0.82955582  0.42559385  0.43587646    -0.17800
C519        C  0.57107600  0.42105967  0.43296893    -0.17000
C520        C  0.58704834  0.40615152  0.43517923     0.07100
C521        C  0.60551149  0.38846973  0.43849028     0.09000
C522        C  0.62109854  0.37324810  0.44186452    -0.17800
C523        C  0.57086405  0.16681674  0.82513282    -0.17000
C524        C  0.58619647  0.19776051  0.81778519     0.07100
C525        C  0.60485840  0.23452035  0.81242908     0.09000
C526        C  0.62103640  0.26609146  0.81015154    -0.17800
C527        C  0.73184972  0.37668653  0.80762017    -0.17000
C528        C  0.76345648  0.39248174  0.80893350     0.07100
C529        C  0.80028534  0.41037082  0.81331520     0.09000
C530        C  0.83128996  0.42480486  0.81995814    -0.17800
C531        C  0.62311938  0.37522604  0.81902735    -0.17000
C532        C  0.60789159  0.39081079  0.82237754     0.07100
C533        C  0.59020982  0.40927769  0.82565596     0.09000
C534        C  0.57530815  0.42525867  0.82784106    -0.17800
C535        C  0.86691483  0.13151256  0.31868880    -0.17000
C536        C  0.88250298  0.11628991  0.32203489     0.07100
C537        C  0.90096829  0.09861119  0.32535399     0.09000
C538        C  0.91694228  0.08370723  0.32760600    -0.17800
C539        C  0.86833112  0.24022070  0.30753543    -0.17000
C540        C  0.88410083  0.27182207  0.30890011     0.07100
C541        C  0.90195131  0.30864216  0.31332929     0.09000
C542        C  0.91635484  0.33963960  0.31999662    -0.17800
C543        C  0.75775128  0.12939564  0.30993149    -0.17000
C544        C  0.72617629  0.11321168  0.31220695     0.07100
C545        C  0.68941088  0.09454136  0.31756087     0.09000
C546        C  0.65846207  0.07920022  0.32491249    -0.17800
C547        C  0.91269754  0.07945931  0.93325011    -0.17000
C548        C  0.89779856  0.09544059  0.93547632     0.07100
C549        C  0.88011969  0.11390946  0.93876470     0.09000
C550        C  0.86489252  0.12949663  0.94209069    -0.17800
C551        C  0.86697242  0.23863822  0.95077988    -0.17000
C552        C  0.88314654  0.27020810  0.94848654     0.07100
C553        C  0.90180078  0.30696579  0.94311718     0.09000
C554        C  0.91712583  0.33790741  0.93576093    -0.17800
C555        C  0.65672286  0.07995551  0.94093755    -0.17000
C556        C  0.68772546  0.09438248  0.94758741     0.07100
C557        C  0.72455209  0.11226098  0.95198126     0.09000
C558        C  0.75615777  0.12804902  0.95331011    -0.17800
C559        C  0.84664314  0.64793637  0.94634344     0.81800
N560        N  0.86488924  0.68350006  0.94746644    -0.76500
C561        C  0.84767425  0.70095103  0.95116387     0.84200
N562        N  0.81213831  0.68278868  0.95346707    -0.76500
C563        C  0.79384336  0.64721097  0.95242461     0.84300
N564        N  0.81111689  0.62981602  0.94872101    -0.78200
C565        C  0.84847039  0.64975053  0.31442595     0.81800
N566        N  0.81290421  0.63149716  0.31327162    -0.76500
C567        C  0.79544556  0.64870189  0.30957253     0.84200
N568        N  0.81360241  0.68423487  0.30730094    -0.76500
C569        C  0.84918245  0.70253746  0.30837494     0.84300
N570        N  0.86658533  0.68527424  0.31207978    -0.78200
C571        C  0.64137037  0.85679158  0.81471729     0.81800
N572        N  0.62312441  0.82122872  0.81356262    -0.76500
C573        C  0.64033722  0.80378092  0.80979705     0.84200
N574        N  0.67587168  0.82194587  0.80745680    -0.76500
C575        C  0.69416660  0.85752314  0.80852998     0.84300
N576        N  0.67689469  0.87491432  0.81230178    -0.78200
C577        C  0.63954285  0.85501637  0.44619196     0.81800
N578        N  0.62142943  0.81949455  0.44857541    -0.76500
C579        C  0.63883236  0.80223721  0.45235331     0.84200
N580        N  0.67441187  0.82054419  0.45346339    -0.76500
C581        C  0.69256740  0.85607573  0.45115542     0.84300
N582        N  0.67510807  0.87327390  0.44738330    -0.78200
C583        C  0.62072851  0.56415280  0.92900788     0.44000
N584        N  0.57740853  0.54760289  0.88973813     0.02900
C585        C  0.91396674  0.52229750  0.92819909    -0.05000
H586        H  0.94470073  0.94475173  0.01517353     0.08400
C587        C  0.94880798  0.88666234  0.88395853    -0.05300
Co588      Co  0.51899287  0.55172054  0.92678888     0.74200
N589        N  0.97327266  0.98574741  0.97210986    -0.24500
Co590      Co  0.94142112  0.97101380  0.92193403     0.74100
C591        C  0.93420955  0.87382696  0.92304142     0.44100
N592        N  0.51745978  0.95661204  0.83227402     0.02500
N593        N  0.94286688  0.92531141  0.91555775     0.02600
N594        N  0.96519632  0.57454868  0.93127120    -0.45400
H595        H  0.59256465  0.57429170  0.97944387     0.08400
N596        N  0.50286318  0.51642937  0.97399804     0.02900
N597        N  0.91060171  0.95713885  0.87115546     0.02600
C598        C  0.86728769  0.94060727  0.83188037     0.44200
N599        N  0.54694112  0.98739534  0.83415834    -0.24000
C600        C  0.53918093  0.61806008  0.87693438    -0.04900
N601        N  0.60965118  0.55358359  0.89180785    -0.45100
N602        N  0.87836360  0.95116998  0.86908236    -0.45300
C603        C  0.55377717  0.63089588  0.83785017     0.44000
N604        N  0.97054986  0.54811579  0.92865118     0.02900
N605        N  0.51474425  0.51897131  0.78877785    -0.24000
N606        N  0.56697213  0.55445960  0.92319996    -0.24500
N607        N  0.98515496  0.98828872  0.78688983     0.02500
H608        H  0.54335528  0.55993538  0.74569127     0.08400
H609        H  0.89544791  0.93046260  0.78144630     0.08500
N610        N  0.94106774  0.51733376  0.92676824    -0.24500
N611        N  0.95329427  0.91867691  0.88194700    -0.24100
N612        N  0.54512837  0.57941411  0.84533493     0.02900
C613        C  0.99744859  0.99393140  0.03146059     0.44300
C614        C  0.57403826  0.98242572  0.83278372    -0.05400
N615        N  0.92103765  0.95028053  0.83769309    -0.24100
H616        H  0.95337971  0.87336261  0.86020285     0.08400
N617        N  0.51787228  0.52259370  0.00922519    -0.45400
H618        H  0.60148067  0.00270726  0.83383009     0.08400
C619        C  0.99061032  0.51075420  0.72939635     0.44100
C620        C  0.59278844  0.56527521  0.94988465    -0.04900
Co621      Co  0.54658509  0.53371478  0.83896412     0.73800
N622        N  0.52281550  0.93017770  0.82971168    -0.45100
C623        C  0.93015709  0.56010885  0.93107956     0.44400
N624        N  0.55746840  0.60597515  0.82012043    -0.45100
Co625      Co  0.96901472  0.95300750  0.83411008     0.73900
C626        C  0.89522465  0.93947656  0.81100611    -0.05400
C627        C  0.96762593  0.96959314  0.00718004    -0.05000
N628        N  0.53470123  0.58604817  0.87894724    -0.24500
N629        N  0.93052239  0.89874964  0.94077153    -0.45300
H630        H  0.88651836  0.50200958  0.92718148     0.08400
C631        C  0.52041661  0.53510549  0.75369022    -0.05400
Cl632      Cl  0.99400046  0.50236493  0.88044810    -0.48400
C633        C  0.55785380  0.94461585  0.82994078     0.44200
H634        H  0.53460931  0.63135956  0.90069122     0.08400
N635        N  0.97017084  0.98210376  0.75164587    -0.45100
C636        C  0.00232301  0.99878418  0.22936770     0.44000
N637        N  0.97986946  0.99343796  0.28686137     0.02900
C638        C  0.55698288  0.60121453  0.44974007    -0.05000
H639        H  0.62302965  0.54298838  0.40048395     0.08400
C640        C  0.51391913  0.92236480  0.42805543    -0.05300
Co641      Co  0.52535482  0.55492238  0.33885506     0.74200
N642        N  0.57770140  0.54305510  0.37877961    -0.24500
Co643      Co  0.54340264  0.52739841  0.42666077     0.74100
C644        C  0.55173570  0.93853603  0.43085054     0.44100
N645        N  0.94871552  0.91897829  0.37117374     0.02500
N646        N  0.53976720  0.97894516  0.42851119     0.02600
N647        N  0.54526286  0.61803232  0.39167454    -0.45400
H648        H  0.55153761  0.55152981  0.24558224     0.08400
N649        N  0.57105271  0.55345712  0.34517538     0.02900
N650        N  0.50815508  0.51132424  0.47392913     0.02600
C651        C  0.98574067  0.50593285  0.53145693     0.44200
N652        N  0.94184581  0.92939018  0.33771814    -0.24000
C653        C  0.97409534  0.58240651  0.33264020    -0.04900
N654        N  0.97366940  0.97839479  0.25164407    -0.45100
N655        N  0.51437840  0.52633961  0.50916498    -0.45300
C656        C  0.93628045  0.56623382  0.32980692     0.44000
N657        N  0.53928304  0.58579185  0.38961027     0.02900
N658        N  0.91031466  0.96173073  0.38200339    -0.24000
N659        N  0.51056683  0.52302006  0.28870522    -0.24500
N660        N  0.91696255  0.95132897  0.41560951     0.02500
H661        H  0.86499140  0.96180762  0.36030183     0.08400
H662        H  0.93651906  0.95318960  0.51523400     0.08500
N663        N  0.54615545  0.57538086  0.42306610    -0.24500
N664        N  0.50897101  0.94947414  0.42667322    -0.24100
N665        N  0.94824626  0.52582612  0.33224349     0.02900
C666        C  0.62253907  0.56210532  0.33764261     0.44300
C667        C  0.93101111  0.90355460  0.31104594    -0.05400
N668        N  0.97745512  0.98174127  0.47208590    -0.24100
H669        H  0.49361862  0.89492269  0.42704743     0.08400
N670        N  0.59760804  0.56578298  0.31993769    -0.45400
H671        H  0.92198747  0.90375964  0.28149343     0.08400
C672        C  0.86548081  0.94269391  0.42314499     0.44100
C673        C  0.52669377  0.52862230  0.25361282    -0.04900
Co674      Co  0.94461103  0.97737483  0.33411754     0.73800
N675        N  0.94272747  0.88673477  0.36911175    -0.45100
C676        C  0.55585079  0.62913626  0.42886419     0.44400
N677        N  0.92182173  0.53119531  0.32964529    -0.45100
Co678      Co  0.96265640  0.94985084  0.42192455     0.73900
C679        C  0.96135035  0.97611154  0.50719738    -0.05400
C680        C  0.60971654  0.54753556  0.37673701    -0.05000
N681        N  0.97904151  0.55529747  0.33408003    -0.24500
N682        N  0.56619399  0.97357455  0.43105043    -0.45300
H683        H  0.56600730  0.60101077  0.47929291     0.08400
C684        C  0.87830328  0.95725904  0.38404860    -0.05400
Cl685      Cl  0.99400621  0.50238804  0.38039190    -0.48400
C686        C  0.93213644  0.87563063  0.33192327     0.44200
H687        H  0.99439709  0.60984927  0.33361798     0.08400
N688        N  0.89040908  0.93901075  0.44084910    -0.45100
C689        C  0.98753605  0.51208996  0.68705721    -0.17000
C690        C  0.98570905  0.51205268  0.65138786     0.07100
C691        C  0.98451273  0.51086859  0.60947239     0.09000
C692        C  0.98444996  0.50903511  0.57380096    -0.17800
C693        C  0.00364477  0.99564592  0.18703547    -0.17000
C694        C  0.00359583  0.99379115  0.15136803     0.07100
C695        C  0.00239733  0.99259890  0.10945527     0.09000
C696        C  0.00055372  0.99257026  0.07378932    -0.17800
C697        C  0.57163649  0.66512898  0.44078982    -0.17000
C698        C  0.58604778  0.69612820  0.44745263     0.07100
C699        C  0.60390778  0.73295030  0.45187306     0.09000
C700        C  0.61968233  0.76455273  0.45322366    -0.17800
C701        C  0.73026022  0.87538441  0.45082605    -0.17000
C702        C  0.76183644  0.89157320  0.44856469     0.07100
C703        C  0.79860367  0.91024956  0.44322017     0.09000
C704        C  0.82955396  0.92559490  0.43587363    -0.17800
C705        C  0.57107349  0.92105927  0.43296977    -0.17000
C706        C  0.58704581  0.90615109  0.43517945     0.07100
C707        C  0.60550889  0.88846921  0.43848986     0.09000
C708        C  0.62109605  0.87324767  0.44186377    -0.17800
C709        C  0.57086530  0.66681767  0.82513708    -0.17000
C710        C  0.58619890  0.69776162  0.81779021     0.07100
C711        C  0.60486193  0.73452147  0.81243419     0.09000
C712        C  0.62104063  0.76609255  0.81015580    -0.17800
C713        C  0.73185432  0.87668719  0.80761653    -0.17000
C714        C  0.76346111  0.89248210  0.80892921     0.07100
C715        C  0.80028992  0.91037068  0.81331100     0.09000
C716        C  0.83129443  0.92480418  0.81995439    -0.17800
C717        C  0.62312469  0.87522797  0.81902701    -0.17000
C718        C  0.60789759  0.89081331  0.82237729     0.07100
C719        C  0.59021686  0.90928092  0.82565615     0.09000
C720        C  0.57531714  0.92526375  0.82784178    -0.17800
C721        C  0.86691681  0.63151342  0.31868866    -0.17000
C722        C  0.88250506  0.61629093  0.32203529     0.07100
C723        C  0.90097047  0.59861238  0.32535509     0.09000
C724        C  0.91694439  0.58370839  0.32760771    -0.17800
C725        C  0.86833392  0.74022167  0.30753272    -0.17000
C726        C  0.88410373  0.77182302  0.30889714     0.07100
C727        C  0.90195403  0.80864305  0.31332635     0.09000
C728        C  0.91635702  0.83964036  0.31999401    -0.17800
C729        C  0.75775358  0.62939724  0.30992997    -0.17000
C730        C  0.72617857  0.61321371  0.31220526     0.07100
C731        C  0.68941311  0.59454376  0.31755901     0.09000
C732        C  0.65846427  0.57920255  0.32491057    -0.17800
C733        C  0.91269631  0.57946002  0.93325520    -0.17000
C734        C  0.89779724  0.59544121  0.93548173     0.07100
C735        C  0.88011801  0.61390974  0.93876972     0.09000
C736        C  0.86489058  0.62949673  0.94209468    -0.17800
C737        C  0.86697117  0.73863869  0.95077976    -0.17000
C738        C  0.88314634  0.77020859  0.94848660     0.07100
C739        C  0.90180225  0.80696633  0.94311753     0.09000
C740        C  0.91712870  0.83790803  0.93576149    -0.17800
C741        C  0.65672053  0.57995436  0.94093578    -0.17000
C742        C  0.68772329  0.59438214  0.94758520     0.07100
C743        C  0.72455004  0.61226142  0.95197872     0.09000
C744        C  0.75615575  0.62804980  0.95330781    -0.17800
loop_ 
_geom_bond_atom_site_label_1 
_geom_bond_atom_site_label_2 
_geom_bond_distance 
_geom_bond_site_symmetry_2 
_ccdc_geom_bond_type 
C1            N2   1.358       .  A
C1            N6   1.358       .  A
C1          C178   1.438       .  S
N2            C3   1.358       .  A
C3            N4   1.358       .  A
C3          C179   1.438       .  S
N4            C5   1.358       .  A
C5            N6   1.358       .  A
C5          C186   1.438       .  S
C7            N8   1.358       .  A
C7           N12   1.358       .  A
C7          C163   1.438       .  S
N8            C9   1.358       .  A
C9           N10   1.358       .  A
C9          C171   1.438       .  S
N10          C11   1.358       .  A
C11          N12   1.358       .  A
C11         C167   1.438       .  S
C13          N14   1.358       .  A
C13          N18   1.358       .  A
C13         C159   1.438       .  S
N14          C15   1.358       .  A
C15          N16   1.358       .  A
C15         C154   1.438       .  S
N16          C17   1.358       .  A
C17          N18   1.358       .  A
C17         C155   1.438       .  S
C19          N20   1.358       .  A
C19          N24   1.358       .  A
C19         C150   1.438       .  S
N20          C21   1.358       .  A
C21          N22   1.358       .  A
C21         C142   1.438       .  S
N22          C23   1.358       .  A
C23          N24   1.358       .  A
C23         C143   1.438       .  S
C25          N43   1.347       .  A
C25         C183   1.438       .  S
C25          C62   1.458       .  S
N26          N43   1.324       .  A
N26          N48   1.321       .  A
N26         Co63   2.087       .  S
C27          N52   1.342       .  A
C27          C65   1.455       .  S
C27          H72   1.082       .  S
H28          C69   1.082       .  S
C29          N53   1.340       .  A
C29          C33   1.454       .  S
C29          H58   1.082       .  S
Co30         N48   2.088       .  S
Co30         N38   2.092       .  S
Co30         N70   2.085       .  S
Co30        N418   2.088   1_455  S
Co30       Cl446   2.454   1_455  S
N31          C69   1.344   1_556  A
N31         N596   1.321       .  A
N31         Co32   2.093       .  S
Co32         N35   2.090       .  S
Co32         N39   2.087       .  S
Co32        N238   2.086       .  S
Co32       Cl260   2.454       .  S
C33          N71   1.350       .  A
C33         C182   1.438       .  S
N34          N41   1.321       .  A
N34          N64   1.326       .  A
N34        Co439   2.088   1_455  S
N35          N53   1.321       .  A
N35          N71   1.326       .  A
N36          C65   1.348       .  A
N36          N46   1.326       .  A
H37          C62   1.082       .  S
N38          N59   1.326   1_556  A
N38         N589   1.321   1_445  A
N39          N57   1.321       .  A
N39          N44   1.324       .  A
C40          N44   1.347       .  A
C40         C158   1.438       .  S
C40          C68   1.458       .  S
N41          C56   1.342       .  A
N41        Co249   2.086       .  S
C42          N70   1.340       .  A
C42          C45   1.454       .  S
C42          H76   1.082       .  S
C45          N66   1.350       .  A
C45         C151   1.438       .  S
N46          N52   1.321       .  A
N46        Co402   2.088       .  S
N47          C73   1.344       .  A
N47         N607   1.321   1_445  A
N47         Co63   2.093       .  S
N48          C62   1.343       .  A
N49          N77   1.327       .  A
N49         N605   1.321       .  A
N49         Co67   2.092       .  S
H50          C73   1.082       .  S
H51          C68   1.082       .  S
N52        Co218   2.086   1_545  S
N53         Co67   2.085       .  S
N54          N66   1.326       .  A
N54          N70   1.321       .  A
N54         Co63   2.090       .  S
C55         N617   1.350       .  A
C55         C138   1.445       .  S
C55          C69   1.459       .  S
C56          C75   1.455       .  S
C56          H60   1.082       .  S
N57          C68   1.343       .  A
N57         Co67   2.088       .  S
N59         C613   1.350   1_445  A
C61         N263   1.350   1_545  A
C61         C131   1.445       .  S
C61         C445   1.459       .  S
Co63        N227   2.086   1_545  S
Co63       Cl446   2.454   1_455  S
N64          C75   1.348       .  A
C65         C175   1.438       .  S
Co67        N406   2.088       .  S
Co67       Cl260   2.454       .  S
C73         C433   1.459   1_455  S
Cl74       Co402   2.454       .  S
Cl74       Co218   2.454   1_545  S
Cl74       Co435   2.454       .  S
Cl74       Co253   2.454   1_545  S
C75         C162   1.438       .  S
N77         C247   1.350       .  A
C78          N96   1.350       .  A
C78         C135   1.445       .  S
C78         C673   1.459       .  S
N79          N96   1.326       .  A
N79         N659   1.321       .  A
N79        Co116   2.092       .  S
C80         N105   1.343       .  A
C80         C118   1.458       .  S
C80         H125   1.082       .  S
H81         C122   1.082       .  S
C82         N106   1.342       .  A
C82          C86   1.455       .  S
C82         H111   1.082   1_455  S
Co83        N101   2.093       .  S
Co83         N91   2.090       .  S
Co83         N99   2.087       .  S
Co83        N495   2.086   1_455  S
Co83       Cl499   2.454   1_455  S
N84         C122   1.340       .  A
N84          N91   1.321       .  A
N84         Co85   2.085       .  S
Co85        N105   2.088       .  S
Co85         N92   2.092       .  S
Co85        N274   2.088   1_545  S
Co85       Cl499   2.453   1_455  S
C86         N124   1.348       .  A
C86         C147   1.438       .  S
N87          N94   1.321       .  A
N87         N117   1.324       .  A
N87        Co120   2.087       .  S
N88         N106   1.321       .  A
N88         N124   1.326       .  A
N88        Co271   2.088       .  S
N89         C118   1.347       .  A
N89          N99   1.324       .  A
H90         C115   1.082       .  S
N91         N112   1.326       .  A
N92          N97   1.327       .  A
N92         N668   1.321   1_445  A
C93         N469   1.350       .  A
C93         C134   1.445       .  S
C93         C307   1.459   1_545  S
N94         C109   1.343       .  A
N94        Co116   2.088       .  S
C95         N123   1.342       .  A
C95          C98   1.455       .  S
C95         H129   1.081       .  S
N97         C465   1.350   1_455  A
C98         N119   1.348       .  A
C98         C166   1.438       .  S
N99         N105   1.321       .  A
N100        C126   1.340       .  A
N100        N102   1.321       .  A
N100       Co116   2.085       .  S
N101        C115   1.344       .  A
N101        N637   1.321   1_445  A
N102        N130   1.326       .  A
N102       Co120   2.090       .  S
H103        C126   1.082       .  S
H104        C121   1.082       .  S
N106       Co492   2.086   1_455  S
N107        N119   1.326       .  A
N107        N123   1.321       .  A
N107       Co302   2.088   1_545  S
C108        N112   1.350       .  A
C108        C174   1.438       .  S
C108        C122   1.454       .  S
C109        C128   1.458       .  S
C109        H113   1.082       .  S
N110        C121   1.344       .  A
N110        N650   1.321       .  A
N110       Co120   2.093       .  S
C114        N130   1.350       .  A
C114        C146   1.438       .  S
C114        C126   1.454       .  S
C115        C636   1.459   1_545  S
Co116       N293   2.088       .  S
Co116      Cl313   2.453       .  S
N117        C128   1.347       .  A
C118        C139   1.438       .  S
Co120       N478   2.086       .  S
Co120      Cl313   2.454       .  S
C121        C279   1.459       .  S
N123       Co455   2.086       .  S
Cl127      Co455   2.454       .  S
Cl127      Co457   2.453       .  S
Cl127      Co302   2.453   1_545  S
Cl127      Co306   2.454   1_545  S
C128        C170   1.438       .  S
C131        C132   1.211       .  T
C132        C133   1.421       .  S
C133        C134   1.211       .  T
C135        C136   1.211       .  T
C136        C137   1.421       .  S
C137        C138   1.211       .  T
C139        C140   1.207       .  T
C140        C141   1.415       .  S
C141        C142   1.207       .  T
C143        C144   1.207       .  T
C144        C145   1.414       .  S
C145        C146   1.207       .  T
C147        C148   1.207       .  T
C148        C149   1.414       .  S
C149        C150   1.207       .  T
C151        C152   1.207       .  T
C152        C153   1.414       .  S
C153        C154   1.207       .  T
C155        C156   1.207       .  T
C156        C157   1.415       .  S
C157        C158   1.207       .  T
C159        C160   1.207       .  T
C160        C161   1.414       .  S
C161        C162   1.207       .  T
C163        C164   1.207       .  T
C164        C165   1.414       .  S
C165        C166   1.207       .  T
C167        C168   1.207       .  T
C168        C169   1.415       .  S
C169        C170   1.207       .  T
C171        C172   1.207       .  T
C172        C173   1.414       .  S
C173        C174   1.207       .  T
C175        C176   1.207       .  T
C176        C177   1.414       .  S
C177        C178   1.207       .  T
C179        C180   1.207       .  T
C180        C181   1.414       .  S
C181        C182   1.207       .  T
C183        C184   1.207       .  T
C184        C185   1.414       .  S
C185        C186   1.207       .  T
C187        N188   1.358       .  A
C187        N192   1.358       .  A
C187        C364   1.438       .  S
N188        C189   1.358       .  A
C189        N190   1.358       .  A
C189        C365   1.438       .  S
N190        C191   1.358       .  A
C191        N192   1.358       .  A
C191        C372   1.438       .  S
C193        N194   1.358       .  A
C193        N198   1.358       .  A
C193        C349   1.438       .  S
N194        C195   1.358       .  A
C195        N196   1.358       .  A
C195        C357   1.438       .  S
N196        C197   1.358       .  A
C197        N198   1.358       .  A
C197        C353   1.438       .  S
C199        N200   1.358       .  A
C199        N204   1.358       .  A
C199        C345   1.438       .  S
N200        C201   1.358       .  A
C201        N202   1.358       .  A
C201        C340   1.438       .  S
N202        C203   1.358       .  A
C203        N204   1.358       .  A
C203        C341   1.438       .  S
C205        N206   1.358       .  A
C205        N210   1.358       .  A
C205        C336   1.438       .  S
N206        C207   1.358       .  A
C207        N208   1.358       .  A
C207        C328   1.438       .  S
N208        C209   1.358       .  A
C209        N210   1.358       .  A
C209        C329   1.438       .  S
C211        N229   1.347       .  A
C211        C369   1.438       .  S
C211        C248   1.458       .  S
N212        N229   1.324       .  A
N212        N234   1.321       .  A
N212       Co249   2.087       .  S
C213        N238   1.342       .  A
C213        C251   1.455       .  S
C213        H258   1.082       .  S
H214        C255   1.082       .  S
C215        N239   1.340       .  A
C215        C219   1.454       .  S
C215        H244   1.082       .  S
Co216       N234   2.088       .  S
Co216       N224   2.092       .  S
Co216       N256   2.085       .  S
Co216       N604   2.088   1_455  S
Co216      Cl632   2.454   1_455  S
N217        C255   1.344   1_556  A
N217        N410   1.321   1_565  A
N217       Co218   2.093       .  S
Co218       N221   2.090       .  S
Co218       N225   2.087       .  S
C219        N257   1.350       .  A
C219        C368   1.438       .  S
N220        N227   1.321       .  A
N220        N250   1.326       .  A
N220       Co625   2.088   1_455  S
N221        N239   1.321       .  A
N221        N257   1.326       .  A
N222        C251   1.348       .  A
N222        N232   1.326       .  A
H223        C248   1.082       .  S
N224        N403   1.321   1_455  A
N224        N245   1.326   1_556  A
N225        N243   1.321       .  A
N225        N230   1.324       .  A
C226        N230   1.347       .  A
C226        C344   1.438       .  S
C226        C254   1.458       .  S
N227        C242   1.342       .  A
C228        N256   1.340       .  A
C228        C231   1.454       .  S
C228        H262   1.082       .  S
C231        N252   1.350       .  A
C231        C337   1.438       .  S
N232        N238   1.321       .  A
N232       Co588   2.088       .  S
N233        C259   1.344       .  A
N233        N421   1.321   1_455  A
N233       Co249   2.093       .  S
N234        C248   1.343       .  A
N235        N419   1.321   1_565  A
N235        N263   1.327       .  A
N235       Co253   2.092       .  S
H236        C259   1.082       .  S
H237        C254   1.082       .  S
N239       Co253   2.085       .  S
N240        N252   1.326       .  A
N240        N256   1.321       .  A
N240       Co249   2.090       .  S
C241        N431   1.350   1_565  A
C241        C324   1.445       .  S
C241        C255   1.459       .  S
C242        C261   1.455       .  S
C242        H246   1.081   1_565  S
N243        C254   1.343       .  A
N243       Co253   2.088       .  S
N245        C427   1.350   1_455  A
C247        C317   1.445       .  S
C247        C631   1.459       .  S
Co249      Cl632   2.454   1_455  S
N250        C261   1.348       .  A
C251        C361   1.438       .  S
Co253       N592   2.088       .  S
C259        C619   1.459   1_455  S
Cl260      Co588   2.454       .  S
Cl260      Co621   2.454       .  S
C261        C348   1.438       .  S
C264        N282   1.350       .  A
C264        C321   1.445       .  S
C264        C487   1.459   1_565  S
N265        N282   1.326       .  A
N265        N473   1.321   1_565  A
N265       Co302   2.092       .  S
C266        N291   1.343       .  A
C266        C304   1.458       .  S
C266        H311   1.082       .  S
H267        C308   1.082       .  S
C268        N292   1.342       .  A
C268        C272   1.455       .  S
C268        H297   1.082   1_455  S
Co269       N287   2.093       .  S
Co269       N277   2.090       .  S
Co269       N681   2.086   1_455  S
Co269       N285   2.087       .  S
Co269      Cl685   2.454   1_455  S
N270        C308   1.340       .  A
N270        N277   1.321       .  A
N270       Co271   2.085       .  S
Co271       N291   2.088       .  S
Co271       N278   2.092       .  S
Co271      Cl685   2.453   1_455  S
C272        N310   1.348       .  A
C272        C333   1.438       .  S
N273        N280   1.321       .  A
N273        N303   1.324       .  A
N273       Co306   2.087       .  S
N274        N292   1.321       .  A
N274        N310   1.326       .  A
N275        C304   1.347       .  A
N275        N285   1.324       .  A
H276        C301   1.082       .  S
N277        N298   1.326       .  A
N278        N482   1.321   1_455  A
N278        N283   1.327       .  A
C279        N655   1.350       .  A
C279        C320   1.445       .  S
N280        C295   1.343       .  A
N280       Co302   2.088       .  S
C281        N309   1.342       .  A
C281        C284   1.455       .  S
C281        H315   1.081       .  S
N283        C651   1.350   1_455  A
C284        N305   1.348       .  A
C284        C352   1.438       .  S
N285        N291   1.321       .  A
N286        C312   1.340       .  A
N286        N288   1.321       .  A
N286       Co302   2.085       .  S
N287        C301   1.344       .  A
N287        N451   1.321   1_455  A
N288        N316   1.326       .  A
N288       Co306   2.090       .  S
H289        C312   1.082       .  S
H290        C307   1.082       .  S
N292       Co678   2.086   1_455  S
N293        N305   1.326       .  A
N293        N309   1.321       .  A
C294        N298   1.350       .  A
C294        C360   1.438       .  S
C294        C308   1.454       .  S
C295        C314   1.458       .  S
C295        H299   1.082       .  S
N296        C307   1.344       .  A
N296        N464   1.321   1_565  A
N296       Co306   2.093       .  S
C300        N316   1.350       .  A
C300        C332   1.438       .  S
C300        C312   1.454       .  S
C301        C450   1.459       .  S
N303        C314   1.347       .  A
C304        C325   1.438       .  S
Co306       N664   2.086       .  S
N309       Co641   2.086       .  S
Cl313      Co641   2.454       .  S
Cl313      Co643   2.453       .  S
C314        C356   1.438       .  S
C317        C318   1.211       .  T
C318        C319   1.421       .  S
C319        C320   1.211       .  T
C321        C322   1.211       .  T
C322        C323   1.421       .  S
C323        C324   1.211       .  T
C325        C326   1.207       .  T
C326        C327   1.415       .  S
C327        C328   1.207       .  T
C329        C330   1.207       .  T
C330        C331   1.414       .  S
C331        C332   1.207       .  T
C333        C334   1.207       .  T
C334        C335   1.414       .  S
C335        C336   1.207       .  T
C337        C338   1.207       .  T
C338        C339   1.414       .  S
C339        C340   1.207       .  T
C341        C342   1.207       .  T
C342        C343   1.415       .  S
C343        C344   1.207       .  T
C345        C346   1.207       .  T
C346        C347   1.414       .  S
C347        C348   1.207       .  T
C349        C350   1.207       .  T
C350        C351   1.414       .  S
C351        C352   1.207       .  T
C353        C354   1.207       .  T
C354        C355   1.415       .  S
C355        C356   1.207       .  T
C357        C358   1.207       .  T
C358        C359   1.414       .  S
C359        C360   1.207       .  T
C361        C362   1.207       .  T
C362        C363   1.414       .  S
C363        C364   1.207       .  T
C365        C366   1.207       .  T
C366        C367   1.414       .  S
C367        C368   1.207       .  T
C369        C370   1.207       .  T
C370        C371   1.414       .  S
C371        C372   1.207       .  T
C373        N374   1.358       .  A
C373        N378   1.358       .  A
C373        C550   1.438       .  S
N374        C375   1.358       .  A
C375        N376   1.358       .  A
C375        C551   1.438       .  S
N376        C377   1.358       .  A
C377        N378   1.358       .  A
C377        C558   1.438       .  S
C379        N380   1.358       .  A
C379        N384   1.358       .  A
C379        C535   1.438       .  S
N380        C381   1.358       .  A
C381        N382   1.358       .  A
C381        C543   1.438       .  S
N382        C383   1.358       .  A
C383        N384   1.358       .  A
C383        C539   1.438       .  S
C385        N386   1.358       .  A
C385        N390   1.358       .  A
C385        C531   1.438       .  S
N386        C387   1.358       .  A
C387        N388   1.358       .  A
C387        C526   1.438       .  S
N388        C389   1.358       .  A
C389        N390   1.358       .  A
C389        C527   1.438       .  S
C391        N392   1.358       .  A
C391        N396   1.358       .  A
C391        C522   1.438       .  S
N392        C393   1.358       .  A
C393        N394   1.358       .  A
C393        C514   1.438       .  S
N394        C395   1.358       .  A
C395        N396   1.358       .  A
C395        C515   1.438       .  S
C397        N415   1.347       .  A
C397        C555   1.438       .  S
C397        C434   1.458       .  S
N398        N415   1.324       .  A
N398        N420   1.321       .  A
N398       Co435   2.087       .  S
C399        N424   1.342       .  A
C399        C437   1.455       .  S
C399        H444   1.082       .  S
H400        C441   1.082       .  S
C401        N425   1.340       .  A
C401        C405   1.454       .  S
C401        H430   1.082       .  S
Co402       N420   2.088       .  S
Co402       N410   2.092       .  S
Co402       N442   2.085       .  S
N403        C441   1.344   1_556  A
N403       Co404   2.093       .  S
Co404       N407   2.090       .  S
Co404       N610   2.086       .  S
Co404       N411   2.087       .  S
Co404      Cl632   2.454       .  S
C405        N443   1.350       .  A
C405        C554   1.438       .  S
N406        N413   1.321       .  A
N406        N436   1.326       .  A
N407        N425   1.321       .  A
N407        N443   1.326       .  A
N408        C437   1.348       .  A
N408        N418   1.326       .  A
H409        C434   1.082       .  S
N410        N431   1.326   1_556  A
N411        N429   1.321       .  A
N411        N416   1.324       .  A
C412        N416   1.347       .  A
C412        C530   1.438       .  S
C412        C440   1.458       .  S
N413        C428   1.342       .  A
N413       Co621   2.086       .  S
C414        N442   1.340       .  A
C414        C417   1.454       .  S
C414        H448   1.082       .  S
C417        N438   1.350       .  A
C417        C523   1.438       .  S
N418        N424   1.321       .  A
N419        C445   1.344       .  A
N419       Co435   2.093       .  S
N420        C434   1.343       .  A
N421        N449   1.327       .  A
N421       Co439   2.092       .  S
H422        C445   1.082       .  S
H423        C440   1.082       .  S
N424       Co590   2.086   1_545  S
N425       Co439   2.085       .  S
N426        N438   1.326       .  A
N426        N442   1.321       .  A
N426       Co435   2.090       .  S
C427        C510   1.445   1_655  S
C427        C441   1.459       .  S
C428        C447   1.455       .  S
C428        H432   1.082       .  S
N429        C440   1.343       .  A
N429       Co439   2.088       .  S
C433        N635   1.350   1_545  A
C433        C503   1.445       .  S
Co435       N599   2.086   1_545  S
N436        C447   1.348       .  A
C437        C547   1.438       .  S
Co439      Cl632   2.454       .  S
Cl446      Co590   2.454   1_545  S
Cl446      Co625   2.454   1_545  S
C447        C534   1.438       .  S
N449        C619   1.350       .  A
C450        N468   1.350   1_455  A
C450        C507   1.445       .  S
N451        N468   1.326       .  A
N451       Co488   2.092       .  S
C452        N477   1.343       .  A
C452        C490   1.458       .  S
C452        H497   1.082       .  S
H453        C494   1.082       .  S
C454        N478   1.342       .  A
C454        C458   1.455       .  S
C454        H483   1.082       .  S
Co455       N473   2.093       .  S
Co455       N463   2.090       .  S
Co455       N471   2.087       .  S
N456        C494   1.340       .  A
N456        N463   1.321       .  A
N456       Co457   2.085       .  S
Co457       N646   2.088   1_545  S
Co457       N477   2.088       .  S
Co457       N464   2.092       .  S
C458        N496   1.348       .  A
C458        C519   1.438       .  S
N459        N466   1.321       .  A
N459        N489   1.324       .  A
N459       Co492   2.087       .  S
N460        N478   1.321       .  A
N460        N496   1.326       .  A
N460       Co643   2.088       .  S
N461        C490   1.347       .  A
N461        N471   1.324       .  A
H462        C487   1.082       .  S
N463        N484   1.326       .  A
N464        N469   1.327       .  A
C465        C506   1.445       .  S
C465        C679   1.459   1_545  S
N466        C481   1.343       .  A
N466       Co488   2.088       .  S
C467        N495   1.342       .  A
C467        C470   1.455       .  S
C467        H501   1.081       .  S
C470        N491   1.348       .  A
C470        C538   1.438       .  S
N471        N477   1.321       .  A
N472        C498   1.340       .  A
N472        N474   1.321       .  A
N472       Co488   2.085       .  S
N473        C487   1.344       .  A
N474        N502   1.326       .  A
N474       Co492   2.090       .  S
H475        C498   1.082       .  S
H476        C493   1.082       .  S
N479        N491   1.326       .  A
N479        N495   1.321       .  A
N479       Co674   2.088   1_545  S
C480        N484   1.350       .  A
C480        C546   1.438       .  S
C480        C494   1.454       .  S
C481        C500   1.458       .  S
C481        H485   1.082       .  S
N482        C493   1.344       .  A
N482       Co492   2.093       .  S
C486        N502   1.350       .  A
C486        C518   1.438       .  S
C486        C498   1.454       .  S
Co488       N665   2.088       .  S
Co488      Cl685   2.453       .  S
N489        C500   1.347       .  A
C490        C511   1.438       .  S
Co492      Cl685   2.454       .  S
C493        C651   1.459       .  S
Cl499      Co674   2.453   1_545  S
Cl499      Co678   2.454   1_545  S
C500        C542   1.438       .  S
C503        C504   1.211       .  T
C504        C505   1.421       .  S
C505        C506   1.211       .  T
C507        C508   1.211       .  T
C508        C509   1.421       .  S
C509        C510   1.211       .  T
C511        C512   1.207       .  T
C512        C513   1.415       .  S
C513        C514   1.207       .  T
C515        C516   1.207       .  T
C516        C517   1.414       .  S
C517        C518   1.207       .  T
C519        C520   1.207       .  T
C520        C521   1.414       .  S
C521        C522   1.207       .  T
C523        C524   1.207       .  T
C524        C525   1.414       .  S
C525        C526   1.207       .  T
C527        C528   1.207       .  T
C528        C529   1.415       .  S
C529        C530   1.207       .  T
C531        C532   1.207       .  T
C532        C533   1.414       .  S
C533        C534   1.207       .  T
C535        C536   1.207       .  T
C536        C537   1.414       .  S
C537        C538   1.207       .  T
C539        C540   1.207       .  T
C540        C541   1.415       .  S
C541        C542   1.207       .  T
C543        C544   1.207       .  T
C544        C545   1.414       .  S
C545        C546   1.207       .  T
C547        C548   1.207       .  T
C548        C549   1.414       .  S
C549        C550   1.207       .  T
C551        C552   1.207       .  T
C552        C553   1.414       .  S
C553        C554   1.207       .  T
C555        C556   1.207       .  T
C556        C557   1.414       .  S
C557        C558   1.207       .  T
C559        N560   1.358       .  A
C559        N564   1.358       .  A
C559        C736   1.438       .  S
N560        C561   1.358       .  A
C561        N562   1.358       .  A
C561        C737   1.438       .  S
N562        C563   1.358       .  A
C563        N564   1.358       .  A
C563        C744   1.438       .  S
C565        N566   1.358       .  A
C565        N570   1.358       .  A
C565        C721   1.438       .  S
N566        C567   1.358       .  A
C567        N568   1.358       .  A
C567        C729   1.438       .  S
N568        C569   1.358       .  A
C569        N570   1.358       .  A
C569        C725   1.438       .  S
C571        N572   1.358       .  A
C571        N576   1.358       .  A
C571        C717   1.438       .  S
N572        C573   1.358       .  A
C573        N574   1.358       .  A
C573        C712   1.438       .  S
N574        C575   1.358       .  A
C575        N576   1.358       .  A
C575        C713   1.438       .  S
C577        N578   1.358       .  A
C577        N582   1.358       .  A
C577        C708   1.438       .  S
N578        C579   1.358       .  A
C579        N580   1.358       .  A
C579        C700   1.438       .  S
N580        C581   1.358       .  A
C581        N582   1.358       .  A
C581        C701   1.438       .  S
C583        N601   1.347       .  A
C583        C741   1.438       .  S
C583        C620   1.458       .  S
N584        N601   1.324       .  A
N584        N606   1.321       .  A
N584       Co621   2.087       .  S
C585        N610   1.342       .  A
C585        C623   1.455       .  S
C585        H630   1.082       .  S
H586        C627   1.082       .  S
C587        N611   1.340       .  A
C587        C591   1.454       .  S
C587        H616   1.082       .  S
Co588       N606   2.088       .  S
Co588       N596   2.092       .  S
Co588       N628   2.085       .  S
N589        C627   1.344   1_556  A
N589       Co590   2.093       .  S
Co590       N593   2.090       .  S
Co590       N597   2.087       .  S
C591        N629   1.350       .  A
C591        C740   1.438       .  S
N592        N599   1.321       .  A
N592        N622   1.326       .  A
N593        N611   1.321       .  A
N593        N629   1.326       .  A
N594        C623   1.348       .  A
N594        N604   1.326       .  A
H595        C620   1.082       .  S
N596        N617   1.326   1_556  A
N597        N615   1.321       .  A
N597        N602   1.324       .  A
C598        N602   1.347       .  A
C598        C716   1.438       .  S
C598        C626   1.458       .  S
N599        C614   1.342       .  A
C600        N628   1.340       .  A
C600        C603   1.454       .  S
C600        H634   1.082       .  S
C603        N624   1.350       .  A
C603        C709   1.438       .  S
N604        N610   1.321       .  A
N605        C631   1.344       .  A
N605       Co621   2.093       .  S
N606        C620   1.343       .  A
N607        N635   1.327       .  A
N607       Co625   2.092       .  S
H608        C631   1.082       .  S
H609        C626   1.082       .  S
N611       Co625   2.085       .  S
N612        N624   1.326       .  A
N612        N628   1.321       .  A
N612       Co621   2.090       .  S
C613        C696   1.445   1_655  S
C613        C627   1.459       .  S
C614        C633   1.455       .  S
C614        H618   1.081   1_565  S
N615        C626   1.343       .  A
N615       Co625   2.088       .  S
C619        C689   1.445       .  S
N622        C633   1.348       .  A
C623        C733   1.438       .  S
C633        C720   1.438       .  S
C636        N654   1.350   1_455  A
C636        C693   1.445       .  S
N637        N654   1.326       .  A
N637       Co674   2.092       .  S
C638        N663   1.343       .  A
C638        C676   1.458       .  S
C638        H683   1.082       .  S
H639        C680   1.082       .  S
C640        N664   1.342       .  A
C640        C644   1.455       .  S
C640        H669   1.081       .  S
Co641       N659   2.093       .  S
Co641       N649   2.090       .  S
Co641       N657   2.087       .  S
N642        C680   1.340       .  A
N642        N649   1.321       .  A
N642       Co643   2.085       .  S
Co643       N663   2.088       .  S
Co643       N650   2.092       .  S
C644        N682   1.348       .  A
C644        C705   1.438       .  S
N645        N652   1.321       .  A
N645        N675   1.324       .  A
N645       Co678   2.087       .  S
N646        N664   1.321       .  A
N646        N682   1.326       .  A
N647        C676   1.347       .  A
N647        N657   1.324       .  A
H648        C673   1.082       .  S
N649        N670   1.326       .  A
N650        N655   1.327       .  A
C651        C692   1.445       .  S
N652        C667   1.343       .  A
N652       Co674   2.088       .  S
C653        N681   1.342       .  A
C653        C656   1.455       .  S
C653        H687   1.081       .  S
C656        N677   1.348       .  A
C656        C724   1.438       .  S
N657        N663   1.321       .  A
N658        C684   1.340       .  A
N658        N660   1.321       .  A
N658       Co674   2.085       .  S
N659        C673   1.344       .  A
N660        N688   1.326       .  A
N660       Co678   2.090       .  S
H661        C684   1.082       .  S
H662        C679   1.082       .  S
N665        N677   1.326       .  A
N665        N681   1.321       .  A
C666        N670   1.350       .  A
C666        C732   1.438       .  S
C666        C680   1.454       .  S
C667        C686   1.458       .  S
C667        H671   1.082       .  S
N668        C679   1.344       .  A
N668       Co678   2.093       .  S
C672        N688   1.350       .  A
C672        C704   1.438       .  S
C672        C684   1.454       .  S
N675        C686   1.347       .  A
C676        C697   1.438       .  S
C686        C728   1.438       .  S
C689        C690   1.211       .  T
C690        C691   1.421       .  S
C691        C692   1.211       .  T
C693        C694   1.211       .  T
C694        C695   1.421       .  S
C695        C696   1.211       .  T
C697        C698   1.207       .  T
C698        C699   1.415       .  S
C699        C700   1.207       .  T
C701        C702   1.207       .  T
C702        C703   1.414       .  S
C703        C704   1.207       .  T
C705        C706   1.207       .  T
C706        C707   1.414       .  S
C707        C708   1.207       .  T
C709        C710   1.207       .  T
C710        C711   1.414       .  S
C711        C712   1.207       .  T
C713        C714   1.207       .  T
C714        C715   1.415       .  S
C715        C716   1.207       .  T
C717        C718   1.207       .  T
C718        C719   1.414       .  S
C719        C720   1.207       .  T
C721        C722   1.207       .  T
C722        C723   1.414       .  S
C723        C724   1.207       .  T
C725        C726   1.207       .  T
C726        C727   1.415       .  S
C727        C728   1.207       .  T
C729        C730   1.207       .  T
C730        C731   1.414       .  S
C731        C732   1.207       .  T
C733        C734   1.207       .  T
C734        C735   1.414       .  S
C735        C736   1.207       .  T
C737        C738   1.207       .  T
C738        C739   1.414       .  S
C739        C740   1.207       .  T
C741        C742   1.207       .  T
C742        C743   1.414       .  S
C743        C744   1.207       .  T
