geometry optimzed in LAMMPS
_audit_creation_date              2020-12-01 
_audit_creation_method            'lammps2cif' 
_symmetry_space_group_name_H-M    'P1' 
_symmetry_Int_Tables_number       1 
_symmetry_cell_setting            triclinic 
loop_ 
_symmetry_equiv_pos_as_xyz 
  x,y,z 
_cell_length_a                    41.80309078 
_cell_length_b                    41.59951337570934 
_cell_length_c                    32.155224499776374 
_cell_angle_alpha                 96.2229322946305 
_cell_angle_beta                  83.97478247518347 
_cell_angle_gamma                 122.50638371645174 
loop_ 
_atom_site_label 
_atom_site_type_symbol 
_atom_site_fract_x 
_atom_site_fract_y 
_atom_site_fract_z 
_atom_site_charge 
C1          C  0.34826047  0.14336933  0.97861282     0.79900
N2          N  0.30977274  0.12381532  0.97770388    -0.78400
C3          C  0.29140373  0.14242414  0.97644122     0.82300
N4          N  0.31188514  0.18108289  0.97609764    -0.78400
C5          C  0.35032873  0.20112236  0.97680423     0.82400
N6          N  0.36837715  0.18204483  0.97743101    -0.80100
C7          C  0.35489767  0.14801620  0.46401170     0.79900
N8          N  0.37426774  0.18684121  0.46784196    -0.78400
C9          C  0.35570021  0.20550509  0.46839282     0.82300
N10         N  0.31766836  0.18480783  0.46416108    -0.78400
C11         C  0.29801003  0.14614155  0.45992147     0.82400
N12         N  0.31682619  0.12792879  0.45979598    -0.80100
C13         C  0.14762889  0.34786379  0.79055961     0.79900
N14         N  0.12762020  0.30946687  0.79307996    -0.78400
C15         C  0.14548587  0.29035698  0.79354808     0.82300
N16         N  0.18407037  0.31008558  0.79172140    -0.78400
C17         C  0.20474935  0.34871820  0.78972678     0.82400
N18         N  0.18622709  0.36732584  0.78934491    -0.80100
C19         C  0.14892186  0.35079609  0.30526615     0.79900
N20         N  0.12839537  0.31210515  0.30137455    -0.78400
C21         C  0.14548544  0.29199490  0.29852450     0.82300
N22         N  0.18388552  0.31100601  0.29942753    -0.78400
C23         C  0.20489273  0.34977001  0.30309118     0.82400
N24         N  0.18717758  0.36939234  0.30635288    -0.80100
N25         N  0.47183728  0.48706359  0.98389141    -0.06500
N26         N  0.46266075  0.47289080  0.02114348    -0.58600
N27         N  0.47153737  0.05263338  0.93357374    -0.06100
N28         N  0.46526399  0.08069230  0.94121588    -0.60700
N29         N  0.43916129  0.01941980  0.93263265    -0.05700
N30         N  0.41030207  0.02426892  0.93939109    -0.58600
N31         N  0.00422615  0.02030577  0.98455657    -0.05400
N32         N  0.01763862  0.02931491  0.02218818    -0.61100
C33         C  0.49157693  0.49947235  0.04474746     0.95700
C34         C  0.42690038  0.06260783  0.94447960     0.95500
N35         N  0.05971860  0.07886865  0.84051316    -0.06600
N36         N  0.07428282  0.10505586  0.81270311    -0.59200
N37         N  0.08051175  0.05840426  0.92714119    -0.04800
N38         N  0.10715530  0.07397181  0.95465252    -0.60400
N39         N  0.09188627  0.04642667  0.89264728    -0.06700
N40         N  0.12617774  0.05323392  0.89600645    -0.59400
N41         N  0.04711371  0.08990388  0.87473019    -0.04400
N42         N  0.05267022  0.12380152  0.87074976    -0.60500
Mn43       Mn  0.02626952  0.05624991  0.93068936     1.18400
C44         C  0.06944488  0.13284775  0.83179199     0.97800
C45         C  0.13538386  0.07028430  0.93483257     0.98500
N46         N  0.40448455  0.44469684  0.87191282    -0.06700
N47         N  0.37006986  0.43761388  0.86839103    -0.63000
N48         N  0.44922348  0.40102128  0.88864105    -0.05500
N49         N  0.44327273  0.36676717  0.89121914    -0.63700
N50         N  0.43685773  0.41162440  0.92342961    -0.06200
N51         N  0.42195331  0.38453845  0.95027910    -0.63300
N52         N  0.41610766  0.43309189  0.83726723    -0.05100
N53         N  0.38955857  0.41738710  0.80965795    -0.64000
Mn54       Mn  0.43724660  0.46525524  0.92861421     1.10700
C55         C  0.36114444  0.42071766  0.82942318     0.99000
C56         C  0.42653253  0.35686004  0.92993640     0.99100
N57         N  0.05716326  0.47191203  0.83304075    -0.06200
N58         N  0.08597349  0.46698204  0.82822912    -0.61600
N59         N  0.49267187  0.47183334  0.78009373    -0.05500
N60         N  0.47919109  0.46421652  0.74259891    -0.58300
N61         N  0.02537716  0.00465806  0.78132590    -0.06800
N62         N  0.03484978  0.02003954  0.74483777    -0.61100
N63         N  0.02476184  0.43882418  0.83158816    -0.05800
N64         N  0.03091771  0.41066513  0.82571548    -0.58300
Mn65       Mn  0.05932238  0.02578339  0.83635209     1.20200
Mn66       Mn  0.47025789  0.43532493  0.83357695     1.10100
Cl67       Cl  0.49821395  0.49564180  0.88235823    -0.86300
C68         C  0.06926509  0.42865174  0.82387436     0.96000
C69         C  0.50568720  0.49467965  0.72104290     0.95800
N70         N  0.48121443  0.49407814  0.48557560    -0.06500
N71         N  0.47405725  0.47979482  0.52231995    -0.58600
N72         N  0.47846086  0.05776034  0.43419374    -0.06100
N73         N  0.47305145  0.08631055  0.43594334    -0.60700
N74         N  0.44578509  0.02501515  0.43609212    -0.05700
N75         N  0.41738022  0.03058412  0.43935938    -0.58600
N76         N  0.01392833  0.02682711  0.48446188    -0.05400
N77         N  0.02974646  0.03556417  0.52083955    -0.61100
C78         C  0.50451792  0.50570069  0.54401992     0.95700
C79         C  0.43483043  0.06896010  0.43897471     0.98300
N80         N  0.05965055  0.07964938  0.33638667    -0.06600
N81         N  0.07284645  0.10525551  0.30803657    -0.59200
N82         N  0.08573443  0.06165173  0.42086789    -0.04800
N83         N  0.11383586  0.07767461  0.44638240    -0.60400
N84         N  0.09508877  0.04877384  0.38556412    -0.06700
N85         N  0.12958591  0.05541568  0.38640080    -0.59400
N86         N  0.04960543  0.09187882  0.37168831    -0.04400
N87         N  0.05527415  0.12581225  0.36798099    -0.60500
Mn88       Mn  0.03247895  0.06055594  0.42875987     1.18400
C89         C  0.06957280  0.13372690  0.32812395     0.97800
C90         C  0.14085271  0.07332272  0.42451453     0.98500
N91         N  0.40702997  0.44818469  0.38122064    -0.06700
N92         N  0.37281887  0.44218242  0.38040748    -0.63000
N93         N  0.45320440  0.40525874  0.39570023    -0.05500
N94         N  0.44884164  0.37196972  0.40041084    -0.63700
N95         N  0.44287601  0.41764925  0.43066606    -0.06200
N96         N  0.43075638  0.39283151  0.45971262    -0.63300
N97         N  0.41608130  0.43493648  0.34604134    -0.05100
N98         N  0.38797962  0.41937626  0.32051853    -0.64000
Mn99       Mn  0.44332740  0.47087858  0.43418264     1.10700
C100        C  0.36136303  0.42452539  0.34228743     0.99000
C101        C  0.43534699  0.36485008  0.44065012     0.99100
N102        N  0.05629664  0.47231685  0.32999939    -0.06200
N103        N  0.08478842  0.46688741  0.32561560    -0.61600
N104        N  0.48778190  0.46967426  0.28225078    -0.05500
N105        N  0.47150428  0.46036727  0.24612993    -0.58300
N106        N  0.02030527  0.00266789  0.28065523    -0.06800
N107        N  0.02671346  0.01651002  0.24367196    -0.61100
N108        N  0.02372079  0.43953685  0.33228641    -0.05800
N109        N  0.02928507  0.41109427  0.32968819    -0.58300
Mn110      Mn  0.05870871  0.02623248  0.33225352     1.20200
Mn111      Mn  0.46959217  0.43623571  0.33815775     1.10100
Cl112      Cl  0.50102896  0.49850249  0.38328568    -0.86300
C113        C  0.06746140  0.42851244  0.32531811     0.96000
C114        C  0.49604022  0.49001948  0.22237494     0.95800
C115        C  0.03924164  0.52272442  0.65358642    -0.12600
C116        C  0.50505955  0.49816901  0.67602911     0.04400
C117        C  0.47123019  0.97649328  0.65471497    -0.07900
C118        C  0.47216223  0.97905704  0.61170926    -0.08600
C119        C  0.50624274  0.50339986  0.58910909    -0.03200
C120        C  0.04010876  0.52544940  0.61040424     0.03600
N121        N  0.07569098  0.54956381  0.58854735     0.66100
H122        H  0.06560528  0.53932976  0.66940038     0.15000
H123        H  0.44566140  0.96239118  0.59615438     0.14700
N124        N  0.43540469  0.95291083  0.67644276     0.73800
O125        O  0.08979463  0.58513544  0.59020327    -0.39600
O126        O  0.09568166  0.53625796  0.57352812    -0.39600
O127        O  0.41696990  0.96739906  0.69333185    -0.40300
O128        O  0.41959752  0.91707467  0.67301155    -0.40300
C129        C  0.96400080  0.46483520  0.11034768    -0.12600
C130        C  0.49270419  0.49751625  0.09032646     0.04400
C131        C  0.52123940  0.02802846  0.11459255    -0.07900
C132        C  0.52088347  0.02511235  0.15750836    -0.08600
C133        C  0.49259500  0.49226661  0.17748129    -0.03200
C134        C  0.96353124  0.46203781  0.15350207     0.03600
N135        N  0.93345195  0.42825696  0.17220858     0.66100
H136        H  0.94155447  0.44123789  0.09249981     0.15000
H137        H  0.54340431  0.04882218  0.17517604     0.14700
N138        N  0.55091377  0.06231554  0.09639057     0.73800
O139        O  0.90550374  0.42830401  0.19127806    -0.39600
O140        O  0.93178192  0.39705762  0.16387580    -0.39600
O141        O  0.54871476  0.09159097  0.10007184    -0.40300
O142        O  0.58183341  0.06525048  0.08317784    -0.40300
C143        C  0.13804777  0.22865700  0.28160236    -0.12600
C144        C  0.12240462  0.24994767  0.29940895     0.04400
C145        C  0.08622531  0.23084916  0.32078689    -0.07900
C146        C  0.06836135  0.19212633  0.32742193    -0.08600
C147        C  0.08518236  0.17149901  0.31202267    -0.03200
C148        C  0.11937110  0.18948902  0.28707279     0.03600
N149        N  0.13690609  0.16918570  0.26964674     0.66100
H150        H  0.16520912  0.24257270  0.26429946     0.15000
H151        H  0.04232103  0.17871621  0.34617202     0.14700
N152        N  0.06827026  0.25062640  0.33879504     0.73800
O153        O  0.12670586  0.15007035  0.23508953    -0.39600
O154        O  0.16618243  0.17502795  0.28526411    -0.39600
O155        O  0.04096665  0.24712028  0.32098434    -0.40300
O156        O  0.07455747  0.26509468  0.37586291    -0.40300
C157        C  0.26187231  0.40331682  0.33652740    -0.12600
C158        C  0.24596099  0.37042460  0.30922868     0.04400
C159        C  0.26902703  0.35687481  0.29085297    -0.07900
C160        C  0.30714292  0.37595864  0.30053988    -0.08600
C161        C  0.32259935  0.40807142  0.32897850    -0.03200
C162        C  0.29967347  0.42197978  0.34677343     0.03600
N163        N  0.31410378  0.45469684  0.37575810     0.66100
H164        H  0.24454813  0.41393417  0.35132257     0.15000
H165        H  0.32433092  0.36481982  0.28675467     0.14700
N166        N  0.25422902  0.32384011  0.26237901     0.73800
O167        O  0.32991433  0.48758997  0.36232953    -0.39600
O168        O  0.30562380  0.45033128  0.41443968    -0.39600
O169        O  0.25275423  0.32705782  0.22416936    -0.40300
O170        O  0.24793555  0.29284613  0.27406531    -0.40300
C171        C  0.12718290  0.42940220  0.32455505    -0.12600
C172        C  0.08786260  0.40834038  0.31989126     0.04400
C173        C  0.06896018  0.36855179  0.31049484    -0.07900
C174        C  0.08957498  0.35082398  0.30623946    -0.08600
C175        C  0.12903690  0.37176061  0.31044230    -0.03200
C176        C  0.14788754  0.41166315  0.31989714     0.03600
N177        N  0.18783097  0.43474178  0.32534406     0.66100
H178        H  0.14209260  0.45992031  0.33208483     0.15000
H179        H  0.07439108  0.32038343  0.29848938     0.14700
N180        N  0.02921511  0.34576271  0.30337175     0.73800
O181        O  0.21026897  0.45181968  0.29477464    -0.39600
O182        O  0.19971939  0.44401555  0.36185477    -0.39600
O183        O  0.01724530  0.35027801  0.27140379    -0.40300
O184        O  0.00767722  0.31662739  0.32393602    -0.40300
C185        C  0.13615381  0.22602507  0.77980097    -0.12600
C186        C  0.12321213  0.24897037  0.79987829     0.04400
C187        C  0.08959230  0.23198431  0.82626065    -0.07900
C188        C  0.07117287  0.19326112  0.83366336    -0.08600
C189        C  0.08530206  0.17082768  0.81551001    -0.03200
C190        C  0.11712309  0.18703980  0.78661264     0.03600
N191        N  0.13118531  0.16481373  0.76484945     0.66100
H192        H  0.16121942  0.23845371  0.75857727     0.15000
H193        H  0.04660752  0.18109410  0.85560483     0.14700
N194        N  0.07520845  0.25391656  0.84835197     0.73800
O195        O  0.11273325  0.14077317  0.73569448    -0.39600
O196        O  0.16485498  0.17413847  0.76912995    -0.39600
O197        O  0.04006628  0.24107735  0.84960662    -0.40300
O198        O  0.09603408  0.28206838  0.87275348    -0.40300
C199        C  0.26610043  0.35122222  0.78220659    -0.12600
C200        C  0.24667621  0.37023574  0.79325027     0.04400
C201        C  0.26713188  0.40798943  0.81157385    -0.07900
C202        C  0.30470226  0.42414883  0.82208168    -0.08600
C203        C  0.32322395  0.40422254  0.81317691    -0.03200
C204        C  0.30410883  0.36795797  0.79162534     0.03600
N205        N  0.32180065  0.34647746  0.78199436     0.66100
H206        H  0.25129104  0.32252109  0.76761109     0.15000
H207        H  0.31939658  0.45239284  0.83781077     0.14700
N208        N  0.25001795  0.42998416  0.82117216     0.73800
O209        O  0.32514753  0.33014714  0.81061332    -0.39600
O210        O  0.32865620  0.33900497  0.74425637    -0.39600
O211        O  0.23907935  0.43369095  0.85847495    -0.40300
O212        O  0.25266906  0.45142323  0.79433869    -0.40300
C213        C  0.06976040  0.37012240  0.80049414    -0.12600
C214        C  0.09005170  0.40884457  0.81430502     0.04400
C215        C  0.12967486  0.42780990  0.81760449    -0.07900
C216        C  0.14782939  0.40764969  0.80831826    -0.08600
C217        C  0.12758847  0.36874853  0.79489436    -0.03200
C218        C  0.08804324  0.35010796  0.78985426     0.03600
N219        N  0.06615384  0.31146794  0.77266507     0.66100
H220        H  0.03951481  0.35543546  0.79666553     0.15000
H221        H  0.17794926  0.42260936  0.81261254     0.14700
N222        N  0.15194377  0.46727759  0.83134883     0.73800
O223        O  0.03349653  0.28870750  0.78867384    -0.39600
O224        O  0.07643051  0.30213640  0.73753166    -0.39600
O225        O  0.16398002  0.47647798  0.86778597    -0.40300
O226        O  0.16559655  0.49240063  0.80486957    -0.40300
C227        C  0.41312641  0.14687647  0.44335868    -0.12600
C228        C  0.37551644  0.12793278  0.46028426     0.04400
C229        C  0.35747663  0.08924900  0.46974117    -0.07900
C230        C  0.37704222  0.07037636  0.46119224    -0.08600
C231        C  0.41461284  0.08939400  0.44438766    -0.03200
C232        C  0.43260486  0.12796163  0.43509668     0.03600
N233        N  0.46962467  0.14757308  0.41459256     0.66100
H234        H  0.42709712  0.17615260  0.43480814     0.15000
H235        H  0.36311659  0.04095211  0.46917795     0.14700
N236        N  0.32005849  0.06915127  0.48966310     0.73800
O237        O  0.47336182  0.14178326  0.37556053    -0.39600
O238        O  0.49725411  0.17476401  0.43388497    -0.39600
O239        O  0.29612758  0.03541240  0.47680082    -0.40300
O240        O  0.31288333  0.08272070  0.52382383    -0.40300
C241        C  0.41676010  0.26849155  0.46094785    -0.12600
C242        C  0.37707062  0.24793238  0.46909666     0.04400
C243        C  0.35834189  0.26828794  0.47435520    -0.07900
C244        C  0.37870255  0.30729772  0.46798945    -0.08600
C245        C  0.41757179  0.32683310  0.45677791    -0.03200
C246        C  0.43704254  0.30772295  0.45504128     0.03600
N247        N  0.47743730  0.32803764  0.44812382     0.66100
H248        H  0.43210470  0.25400753  0.45795471     0.15000
H249        H  0.36357071  0.32196814  0.46970046     0.14700
N250        N  0.31847707  0.24978472  0.48483722     0.73800
O251        O  0.49819389  0.34964238  0.47733544    -0.39600
O252        O  0.49219156  0.31990923  0.41576326    -0.39600
O253        O  0.30649791  0.24506765  0.52272858    -0.40300
O254        O  0.29621918  0.24410549  0.45736273    -0.40300
C255        C  0.23629449  0.14166309  0.47001942    -0.12600
C256        C  0.25678460  0.12475973  0.45381157     0.04400
C257        C  0.23766866  0.08897967  0.43083180    -0.07900
C258        C  0.19927089  0.07198905  0.42338351    -0.08600
C259        C  0.17959310  0.09002238  0.43778193    -0.03200
C260        C  0.19819380  0.12493050  0.46188257     0.03600
N261        N  0.17989480  0.14536862  0.47534646     0.66100
H262        H  0.25026359  0.16883943  0.48802693     0.15000
H263        H  0.18508881  0.04513952  0.40474058     0.14700
N264        N  0.25698531  0.07055065  0.41253808     0.73800
O265        O  0.17346125  0.15043386  0.51395456    -0.39600
O266        O  0.17629644  0.16380566  0.44944718    -0.39600
O267        O  0.24284632  0.03567878  0.41783775    -0.40300
O268        O  0.28323241  0.08648263  0.38455391    -0.40300
C269        C  0.34850224  0.08398354  0.95817887    -0.12600
C270        C  0.36802743  0.12213936  0.97446074     0.04400
C271        C  0.40658310  0.13965094  0.98333235    -0.07900
C272        C  0.42522728  0.11988238  0.97317619    -0.08600
C273        C  0.40594058  0.08224691  0.95537591    -0.03200
C274        C  0.36687461  0.06399808  0.94888454     0.03600
N275        N  0.34561803  0.02563393  0.93130678     0.66100
H276        H  0.31890144  0.06963980  0.95130564     0.15000
H277        H  0.45488500  0.13397093  0.97983544     0.14700
N278        N  0.42685213  0.17685438  0.00406279     0.73800
O279        O  0.32609979  0.99854583  0.95517471    -0.39600
O280        O  0.34124654  0.01952772  0.89240639    -0.39600
O281        O  0.42531355  0.18030095  0.04358189    -0.40300
O282        O  0.45121150  0.20506657  0.98354439    -0.40300
C283        C  0.40452920  0.25677720  0.94174846    -0.12600
C284        C  0.37237489  0.24240256  0.96967459     0.04400
C285        C  0.35987354  0.26682158  0.98659959    -0.07900
C286        C  0.37922548  0.30464045  0.97502159    -0.08600
C287        C  0.41019436  0.31842511  0.94541552    -0.03200
C288        C  0.42299086  0.29410351  0.92893389     0.03600
N289        N  0.45389446  0.30634449  0.89813154     0.66100
H290        H  0.41423571  0.23831834  0.92797251     0.15000
H291        H  0.36877460  0.32270389  0.98783181     0.14700
N292        N  0.32712202  0.25347261  0.01491127     0.73800
O293        O  0.48722772  0.32106336  0.90949622    -0.39600
O294        O  0.44715653  0.29649375  0.85996444    -0.39600
O295        O  0.33120718  0.25938671  0.05386480    -0.40300
O296        O  0.29547453  0.24283993  0.00116671    -0.40300
C297        C  0.22876777  0.13681675  0.98688706    -0.12600
C298        C  0.25010933  0.12097775  0.97013742     0.04400
C299        C  0.23219474  0.08651954  0.94481345    -0.07900
C300        C  0.19416806  0.06958077  0.93569715    -0.08600
C301        C  0.17343696  0.08643541  0.95071152    -0.03200
C302        C  0.19081185  0.12002470  0.97728210     0.03600
N303        N  0.17153203  0.13927062  0.99180391     0.66100
H304        H  0.24205974  0.16323631  0.00628973     0.15000
H305        H  0.18126969  0.04391539  0.91506909     0.14700
N306        N  0.25289002  0.07004609  0.92508259     0.73800
O307        O  0.16196950  0.14040326  0.03021869    -0.39600
O308        O  0.16972555  0.16021331  0.96773455    -0.39600
O309        O  0.24250449  0.03644343  0.93227040    -0.40300
O310        O  0.27706810  0.08633329  0.89539669    -0.40300
C311        C  0.34825348  0.64336922  0.97862160     0.79900
N312        N  0.30976582  0.62381458  0.97770872    -0.78400
C313        C  0.29139686  0.64242297  0.97644226     0.82300
N314        N  0.31187737  0.68108123  0.97609890    -0.78400
C315        C  0.35032048  0.70112220  0.97680926     0.82400
N316        N  0.36836937  0.68204527  0.97744019    -0.80100
C317        C  0.35490498  0.64801802  0.46400193     0.79900
N318        N  0.37427813  0.68684340  0.46784393    -0.78400
C319        C  0.35571403  0.70551129  0.46839614     0.82300
N320        N  0.31768414  0.68481841  0.46414971    -0.78400
C321        C  0.29802293  0.64615218  0.45989843     0.82400
N322        N  0.31683507  0.62793547  0.45977536    -0.80100
C323        C  0.14763595  0.84786906  0.79056393     0.79900
N324        N  0.12762922  0.80947339  0.79309091    -0.78400
C325        C  0.14549709  0.79036593  0.79355898     0.82300
N326        N  0.18408142  0.81009475  0.79172880    -0.78400
C327        C  0.20475799  0.84872720  0.78973036     0.82400
N328        N  0.18623407  0.86733285  0.78934606    -0.80100
C329        C  0.14893032  0.85079552  0.30522105     0.79900
N330        N  0.12840582  0.81210470  0.30131439    -0.78400
C331        C  0.14549716  0.79199474  0.29845677     0.82300
N332        N  0.18389755  0.81100745  0.29936689    -0.78400
C333        C  0.20490174  0.84977144  0.30304547     0.82400
N334        N  0.18718488  0.86939183  0.30631600    -0.80100
N335        N  0.47183843  0.98706222  0.98389783    -0.06500
N336        N  0.46266063  0.97288950  0.02115010    -0.58600
N337        N  0.47153009  0.55263142  0.93356511    -0.06100
N338        N  0.46525494  0.58068891  0.94121091    -0.60700
N339        N  0.43915479  0.51941679  0.93262817    -0.05700
N340        N  0.41029465  0.52426431  0.93939388    -0.58600
N341        N  0.00421409  0.52029922  0.98454639    -0.05400
N342        N  0.01762507  0.52930340  0.02217812    -0.61100
C343        C  0.49157885  0.99946868  0.04475335     0.95700
C344        C  0.42689125  0.56260322  0.94448219     0.95500
N345        N  0.05971646  0.57887780  0.84051360    -0.06600
N346        N  0.07427572  0.60506618  0.81270536    -0.59200
N347        N  0.08050654  0.55840763  0.92714137    -0.04800
N348        N  0.10714858  0.57397333  0.95465469    -0.60400
N349        N  0.09188370  0.54643358  0.89264681    -0.06700
N350        N  0.12617473  0.55324068  0.89600734    -0.59400
N351        N  0.04710834  0.58990832  0.87473148    -0.04400
N352        N  0.05265759  0.62380315  0.87075353    -0.60500
Mn353      Mn  0.02626242  0.55625000  0.93068554     1.18400
C354        C  0.06943096  0.63285355  0.83179590     0.97800
C355        C  0.13537840  0.57028747  0.93483494     0.98500
N356        N  0.40448859  0.94470168  0.87191741    -0.06700
N357        N  0.37007593  0.93762332  0.86839389    -0.63000
N358        N  0.44922255  0.90101982  0.88864726    -0.05500
N359        N  0.44327079  0.86676549  0.89123043    -0.63700
N360        N  0.43685738  0.91162586  0.92343445    -0.06200
N361        N  0.42195241  0.88454289  0.95028726    -0.63300
N362        N  0.41611108  0.93309606  0.83727201    -0.05100
N363        N  0.38956414  0.91739623  0.80966076    -0.64000
Mn364      Mn  0.43724926  0.96525717  0.92861907     1.10700
C365        C  0.36115149  0.92072965  0.82942484     0.99000
C366        C  0.42653104  0.85686304  0.92994938     0.99100
N367        N  0.05715726  0.97190101  0.83304670    -0.06200
N368        N  0.08596747  0.96697146  0.82823264    -0.61600
N369        N  0.49267166  0.97183875  0.78009830    -0.05500
N370        N  0.47918332  0.96423547  0.74260872    -0.58300
N371        N  0.02538825  0.50467280  0.78131772    -0.06800
N372        N  0.03486583  0.52005574  0.74483005    -0.61100
N373        N  0.02475587  0.93881314  0.83159752    -0.05800
N374        N  0.03091184  0.91065402  0.82572481    -0.58300
Mn375      Mn  0.05932589  0.52579440  0.83634854     1.20200
Mn376      Mn  0.47025844  0.93532492  0.83358005     1.10100
Cl377      Cl  0.49821651  0.99564083  0.88236379    -0.86300
C378        C  0.06925942  0.92864141  0.82388046     0.96000
C379        C  0.50567630  0.99470630  0.72106013     0.95800
N380        N  0.48121260  0.99410063  0.48558441    -0.06500
N381        N  0.47404662  0.97983266  0.52233960    -0.58600
N382        N  0.47845790  0.55774796  0.43420737    -0.06100
N383        N  0.47304820  0.58629809  0.43595524    -0.60700
N384        N  0.44578196  0.52500281  0.43610071    -0.05700
N385        N  0.41737672  0.53057141  0.43936346    -0.58600
N386        N  0.01395380  0.52684863  0.48444444    -0.05400
N387        N  0.02977421  0.53559368  0.52082203    -0.61100
C388        C  0.50450119  0.00574867  0.54404228     0.95700
C389        C  0.43482681  0.56894755  0.43898083     0.98300
N390        N  0.05965054  0.57965008  0.33635672    -0.06600
N391        N  0.07285046  0.60525348  0.30800289    -0.59200
N392        N  0.08574743  0.56166461  0.42083301    -0.04800
N393        N  0.11385443  0.57769459  0.44634018    -0.60400
N394        N  0.09509547  0.54878017  0.38552992    -0.06700
N395        N  0.12959449  0.55542475  0.38635993    -0.59400
N396        N  0.04961125  0.59188637  0.37165751    -0.04400
N397        N  0.05528858  0.62582301  0.36794542    -0.60500
Mn398      Mn  0.03249321  0.56056972  0.42873629     1.18400
C399        C  0.06958584  0.63373114  0.32808655     0.97800
C400        C  0.14086827  0.57334027  0.42446904     0.98500
N401        N  0.40703081  0.94818895  0.38122550    -0.06700
N402        N  0.37281804  0.94218234  0.38041355    -0.63000
N403        N  0.45320388  0.90526634  0.39571465    -0.05500
N404        N  0.44884066  0.87197735  0.40042624    -0.63700
N405        N  0.44287538  0.91765803  0.43067972    -0.06200
N406        N  0.43075351  0.89283939  0.45972645    -0.63300
N407        N  0.41608219  0.93493990  0.34604706    -0.05100
N408        N  0.38797867  0.91937548  0.32052590    -0.64000
Mn409      Mn  0.44332849  0.97089024  0.43418732     1.10700
C410        C  0.36136008  0.92452163  0.34229545     0.99000
C411        C  0.43534394  0.86485707  0.44066459     0.99100
N412        N  0.05630485  0.97231815  0.33002234    -0.06200
N413        N  0.08479714  0.96688935  0.32564239    -0.61600
N414        N  0.48778643  0.96967398  0.28225791    -0.05500
N415        N  0.47151005  0.96036654  0.24613606    -0.58300
N416        N  0.02028961  0.50266269  0.28064120    -0.06800
N417        N  0.02669551  0.51650108  0.24365662    -0.61100
N418        N  0.02372925  0.93953728  0.33230245    -0.05800
N419        N  0.02929379  0.91109487  0.32970089    -0.58300
Mn420      Mn  0.05870341  0.52623149  0.33222878     1.20200
Mn421      Mn  0.46959357  0.93623938  0.33816890     1.10100
Cl422      Cl  0.50103088  0.99851032  0.38329097    -0.86300
C423        C  0.06747035  0.92851390  0.32533977     0.96000
C424        C  0.49604905  0.99001676  0.22237972     0.95800
C425        C  0.03922049  0.02267964  0.65358918    -0.12600
C426        C  0.50504277  0.99821357  0.67605241     0.04400
C427        C  0.47125208  0.47642695  0.65468492    -0.07900
C428        C  0.47218697  0.47898299  0.61167779    -0.08600
C429        C  0.50622100  0.00346084  0.58913641    -0.03200
C430        C  0.04008476  0.02539444  0.61040545     0.03600
N431        N  0.07567055  0.04947628  0.58853651     0.66100
H432        H  0.06558901  0.03926881  0.66939569     0.15000
H433        H  0.44568841  0.46230479  0.59611995     0.14700
N434        N  0.43542689  0.45283138  0.67640681     0.73800
O435        O  0.08984243  0.08506111  0.59024111    -0.39600
O436        O  0.09559502  0.03611428  0.57344563    -0.39600
O437        O  0.41698696  0.46730913  0.69331117    -0.40300
O438        O  0.41962555  0.41699610  0.67295705    -0.40300
C439        C  0.96403413  0.96483810  0.11035470    -0.12600
C440        C  0.49270754  0.99751252  0.09033197     0.04400
C441        C  0.52121280  0.52804703  0.11459684    -0.07900
C442        C  0.52085264  0.52513074  0.15751365    -0.08600
C443        C  0.49260614  0.99226356  0.17748536    -0.03200
C444        C  0.96356562  0.96203836  0.15350787     0.03600
N445        N  0.93350332  0.92824319  0.17220625     0.66100
H446        H  0.94160107  0.94123103  0.09250172     0.15000
H447        H  0.54335590  0.54885201  0.17518946     0.14700
N448        N  0.55086654  0.56235001  0.09640436     0.73800
O449        O  0.90553770  0.92825936  0.19127057    -0.39600
O450        O  0.93186533  0.89705986  0.16386957    -0.39600
O451        O  0.54865896  0.59162121  0.10014491    -0.40300
O452        O  0.58178281  0.56529989  0.08314092    -0.40300
C453        C  0.13807369  0.72865882  0.28156297    -0.12600
C454        C  0.12241647  0.74994551  0.29933855     0.04400
C455        C  0.08622577  0.73084172  0.32069301    -0.07900
C456        C  0.06836470  0.69212125  0.32734181    -0.08600
C457        C  0.08520033  0.67150077  0.31197612    -0.03200
C458        C  0.11940041  0.68949285  0.28704597     0.03600
N459        N  0.13695064  0.66919511  0.26965548     0.66100
H460        H  0.16524278  0.74257583  0.26427916     0.15000
H461        H  0.04231633  0.67870900  0.34606948     0.14700
N462        N  0.06825025  0.75060968  0.33866090     0.73800
O463        O  0.12679553  0.65009908  0.23508159    -0.39600
O464        O  0.16620202  0.67502728  0.28532414    -0.39600
O465        O  0.04097244  0.74710720  0.32079839    -0.40300
O466        O  0.07447813  0.76504943  0.37574359    -0.40300
C467        C  0.26185039  0.90327655  0.33656451    -0.12600
C468        C  0.24596533  0.87042653  0.30920365     0.04400
C469        C  0.26905092  0.85691565  0.29078394    -0.07900
C470        C  0.30716256  0.87599583  0.30048835    -0.08600
C471        C  0.32259532  0.90806770  0.32898543    -0.03200
C472        C  0.29964696  0.92193669  0.34682601     0.03600
N473        N  0.31404732  0.95460754  0.37587518     0.66100
H474        H  0.24450799  0.91386046  0.35139484     0.15000
H475        H  0.32436686  0.86488777  0.28666455     0.14700
N476        N  0.25427807  0.82392885  0.26224099     0.73800
O477        O  0.32982998  0.98752448  0.36251924    -0.39600
O478        O  0.30556099  0.95017236  0.41454659    -0.39600
O479        O  0.25279254  0.82720962  0.22405393    -0.40300
O480        O  0.24801062  0.79291803  0.27384119    -0.40300
C481        C  0.12719565  0.92940436  0.32454095    -0.12600
C482        C  0.08787102  0.90834117  0.31990794     0.04400
C483        C  0.06896407  0.86855056  0.31052878    -0.07900
C484        C  0.08957852  0.85082236  0.30624794    -0.08600
C485        C  0.12904501  0.87176020  0.31041677    -0.03200
C486        C  0.14790004  0.91166465  0.31986315     0.03600
N487        N  0.18784864  0.93474557  0.32527759     0.66100
H488        H  0.14210947  0.95992417  0.33205883     0.15000
H489        H  0.07438905  0.82038049  0.29851018     0.14700
N490        N  0.02921079  0.84575786  0.30345414     0.73800
O491        O  0.21026734  0.95180507  0.29468865    -0.39600
O492        O  0.19976149  0.94404035  0.36177742    -0.39600
O493        O  0.01721888  0.85019370  0.27145192    -0.40300
O494        O  0.00767835  0.81668902  0.32411804    -0.40300
C495        C  0.13612064  0.72601829  0.77977028    -0.12600
C496        C  0.12322292  0.74898320  0.79989943     0.04400
C497        C  0.08963673  0.73201991  0.82633348    -0.07900
C498        C  0.07120273  0.69329430  0.83372935    -0.08600
C499        C  0.08528811  0.67083705  0.81552078    -0.03200
C500        C  0.11707469  0.68702996  0.78657498     0.03600
N501        N  0.13108055  0.66477846  0.76474462     0.66100
H502        H  0.16115895  0.73843281  0.75850637     0.15000
H503        H  0.04666448  0.68114467  0.85570845     0.14700
N504        N  0.07530797  0.75397970  0.84848224     0.73800
O505        O  0.11254955  0.64071766  0.73564112    -0.39600
O506        O  0.16476506  0.67409478  0.76891106    -0.39600
O507        O  0.04017161  0.74117787  0.84979759    -0.40300
O508        O  0.09618637  0.78213048  0.87285524    -0.40300
C509        C  0.26611444  0.85124362  0.78219076    -0.12600
C510        C  0.24668395  0.87024797  0.79325458     0.04400
C511        C  0.26713270  0.90799490  0.81159701    -0.07900
C512        C  0.30470396  0.92415592  0.82210148    -0.08600
C513        C  0.32323229  0.90423761  0.81317705    -0.03200
C514        C  0.30412361  0.86798136  0.79160677     0.03600
N515        N  0.32182308  0.84651016  0.78195265     0.66100
H516        H  0.25130954  0.82254799  0.76758056     0.15000
H517        H  0.31939265  0.95239340  0.83784615     0.14700
N518        N  0.25000938  0.92997867  0.82122227     0.73800
O519        O  0.32516082  0.83015586  0.81055237    -0.39600
O520        O  0.32869504  0.83906983  0.74420867    -0.39600
O521        O  0.23904280  0.93363971  0.85852581    -0.40300
O522        O  0.25267833  0.95145200  0.79442093    -0.40300
C523        C  0.06976103  0.87011624  0.80049306    -0.12600
C524        C  0.09004795  0.90883674  0.81431124     0.04400
C525        C  0.12967054  0.92780476  0.81761812    -0.07900
C526        C  0.14782968  0.90764975  0.80832837    -0.08600
C527        C  0.12759328  0.86875060  0.79489773    -0.03200
C528        C  0.08804868  0.85010667  0.78985356     0.03600
N529        N  0.06616494  0.81146688  0.77266320     0.66100
H530        H  0.03951587  0.85542686  0.79666020     0.15000
H531        H  0.17794870  0.92261079  0.81262825     0.14700
N532        N  0.15193332  0.96726868  0.83137903     0.73800
O533        O  0.03351965  0.78869393  0.78868907    -0.39600
O534        O  0.07643617  0.80214173  0.73752233    -0.39600
O535        O  0.16394806  0.97645658  0.86782589    -0.40300
O536        O  0.16560209  0.99240122  0.80490925    -0.40300
C537        C  0.41312730  0.64686659  0.44334371    -0.12600
C538        C  0.37551903  0.62792904  0.46027445     0.04400
C539        C  0.35747550  0.58924518  0.46973438    -0.07900
C540        C  0.37703871  0.57036910  0.46119097    -0.08600
C541        C  0.41460872  0.58938182  0.44438425    -0.03200
C542        C  0.43260108  0.62794658  0.43508165     0.03600
N543        N  0.46961372  0.64754696  0.41455966     0.66100
H544        H  0.42709878  0.67614085  0.43478627     0.15000
H545        H  0.36311176  0.54094615  0.46918195     0.14700
N546        N  0.32005537  0.56915027  0.48965235     0.73800
O547        O  0.47333861  0.64171559  0.37553391    -0.39600
O548        O  0.49724774  0.67476181  0.43382397    -0.39600
O549        O  0.29612593  0.53540923  0.47679473    -0.40300
O550        O  0.31287569  0.58272563  0.52380558    -0.40300
C551        C  0.41677168  0.76849795  0.46093735    -0.12600
C552        C  0.37708597  0.74793967  0.46911401     0.04400
C553        C  0.35835816  0.76829628  0.47440337    -0.07900
C554        C  0.37871344  0.80730594  0.46803425    -0.08600
C555        C  0.41757777  0.82684108  0.45679527    -0.03200
C556        C  0.43704970  0.80772966  0.45503191     0.03600
N557        N  0.47744189  0.82804316  0.44808539     0.66100
H558        H  0.43211554  0.75401241  0.45791929     0.15000
H559        H  0.36358081  0.82197695  0.46976825     0.14700
N560        N  0.31849951  0.74979417  0.48492600     0.73800
O561        O  0.49821592  0.84965523  0.47728188    -0.39600
O562        O  0.49217851  0.81990685  0.41571412    -0.39600
O563        O  0.30654169  0.74498646  0.52281759    -0.40300
O564        O  0.29622535  0.74418929  0.45750776    -0.40300
C565        C  0.23631465  0.64169212  0.46995616    -0.12600
C566        C  0.25679885  0.62477540  0.45377543     0.04400
C567        C  0.23767769  0.58898616  0.43081224    -0.07900
C568        C  0.19928151  0.57199905  0.42335664    -0.08600
C569        C  0.17961045  0.59004365  0.43773161    -0.03200
C570        C  0.19821659  0.62496284  0.46181100     0.03600
N571        N  0.17992593  0.64541434  0.47524275     0.66100
H572        H  0.25028576  0.66887527  0.48795024     0.15000
H573        H  0.18509457  0.54514119  0.40472889     0.14700
N574        N  0.25698601  0.57054071  0.41254572     0.73800
O575        O  0.17346895  0.65048186  0.51384381    -0.39600
O576        O  0.17635652  0.66385749  0.44932521    -0.39600
O577        O  0.24282915  0.53566762  0.41785685    -0.40300
O578        O  0.28324340  0.58645832  0.38456798    -0.40300
C579        C  0.34848278  0.58396744  0.95824529    -0.12600
C580        C  0.36802116  0.62213886  0.97447758     0.04400
C581        C  0.40658923  0.63966332  0.98330405    -0.07900
C582        C  0.42523136  0.61989332  0.97314213    -0.08600
C583        C  0.40593144  0.58224260  0.95538601    -0.03200
C584        C  0.36685358  0.56398008  0.94894938     0.03600
N585        N  0.34557963  0.52559632  0.93143137     0.66100
H586        H  0.31887125  0.56961120  0.95141192     0.15000
H587        H  0.45489881  0.63399344  0.97976406     0.14700
N588        N  0.42687502  0.67688293  0.00399504     0.73800
O589        O  0.32606309  0.49854355  0.95534347    -0.39600
O590        O  0.34120014  0.51943794  0.89253362    -0.39600
O591        O  0.42532693  0.68036822  0.04351244    -0.40300
O592        O  0.45125004  0.70506915  0.98345176    -0.40300
C593        C  0.40455121  0.75679681  0.94180602    -0.12600
C594        C  0.37236538  0.74240511  0.96968748     0.04400
C595        C  0.35983372  0.76680993  0.98657074    -0.07900
C596        C  0.37918688  0.80462956  0.97499545    -0.08600
C597        C  0.41018971  0.81843022  0.94543420    -0.03200
C598        C  0.42301698  0.79412522  0.92899576     0.03600
N599        N  0.45396193  0.80638852  0.89824535     0.66100
H600        H  0.41428338  0.73835091  0.92806211     0.15000
H601        H  0.36871206  0.82268087  0.98777027     0.14700
N602        N  0.32704830  0.75344478  0.01483273     0.73800
O603        O  0.48728707  0.82118371  0.90967468    -0.39600
O604        O  0.44728222  0.79650578  0.86007086    -0.39600
O605        O  0.33108043  0.75931391  0.05379649    -0.40300
O606        O  0.29542519  0.74283621  0.00103934    -0.40300
C607        C  0.22876030  0.63681252  0.98689490    -0.12600
C608        C  0.25010334  0.62097734  0.97013708     0.04400
C609        C  0.23219176  0.58652519  0.94480340    -0.07900
C610        C  0.19416385  0.56958509  0.93569128    -0.08600
C611        C  0.17343045  0.58643549  0.95071517    -0.03200
C612        C  0.19080434  0.62002112  0.97729109     0.03600
N613        N  0.17152450  0.63926609  0.99181678     0.66100
H614        H  0.24205127  0.66322894  0.00630302     0.15000
H615        H  0.18126719  0.54392413  0.91505637     0.14700
N616        N  0.25289243  0.57006306  0.92505530     0.73800
O617        O  0.16193133  0.64036562  0.03022621    -0.39600
O618        O  0.16975230  0.66024227  0.96776492    -0.39600
O619        O  0.24250303  0.53645195  0.93220947    -0.40300
O620        O  0.27708203  0.58637364  0.89538604    -0.40300
C621        C  0.84826075  0.14337815  0.97861045     0.79900
N622        N  0.80977277  0.12382046  0.97770106    -0.78400
C623        C  0.79140064  0.14242497  0.97643056     0.82300
N624        N  0.81187853  0.18108283  0.97608073    -0.78400
C625        C  0.85032187  0.20112699  0.97678846     0.82400
N626        N  0.86837411  0.18205367  0.97742266    -0.80100
C627        C  0.85489906  0.14801117  0.46398596     0.79900
N628        N  0.87427439  0.18683646  0.46782316    -0.78400
C629        C  0.85571143  0.20550612  0.46838313     0.82300
N630        N  0.81767941  0.18481478  0.46414987    -0.78400
C631        C  0.79801617  0.14614814  0.45990379     0.82400
N632        N  0.81682778  0.12793035  0.45977280    -0.80100
C633        C  0.64762865  0.34785724  0.79057365     0.79900
N634        N  0.62762375  0.30946182  0.79310292    -0.78400
C635        C  0.64549324  0.29035591  0.79357148     0.82300
N636        N  0.68407785  0.31008627  0.79173822    -0.78400
C637        C  0.70475277  0.34871842  0.78973654     0.82400
N638        N  0.68622694  0.36732214  0.78935225    -0.80100
C639        C  0.64892517  0.35079527  0.30522702     0.79900
N640        N  0.62840223  0.31210433  0.30131747    -0.78400
C641        C  0.64549510  0.29199564  0.29846008     0.82300
N642        N  0.68389546  0.31101002  0.29937306    -0.78400
C643        C  0.70489742  0.34977383  0.30305533     0.82400
N644        N  0.68717945  0.36939295  0.30632608    -0.80100
N645        N  0.97183559  0.48707100  0.98388729    -0.06500
N646        N  0.96265813  0.47289488  0.02113767    -0.58600
N647        N  0.97154194  0.05264381  0.93357309    -0.06100
N648        N  0.96526778  0.08070220  0.94121686    -0.60700
N649        N  0.93916614  0.01942962  0.93263758    -0.05700
N650        N  0.91030677  0.02427816  0.93940200    -0.58600
N651        N  0.50421751  0.02028985  0.98455460    -0.05400
N652        N  0.51762871  0.02929699  0.02218645    -0.61100
C653        C  0.99157592  0.49947253  0.04474228     0.95700
C654        C  0.92690406  0.06261712  0.94448821     0.95500
N655        N  0.55971519  0.07886467  0.84051961    -0.06600
N656        N  0.57427556  0.10505362  0.81271191    -0.59200
N657        N  0.58050578  0.05839242  0.92714386    -0.04800
N658        N  0.60714886  0.07395917  0.95465562    -0.60400
N659        N  0.59188146  0.04641704  0.89264909    -0.06700
N660        N  0.62617289  0.05322436  0.89600812    -0.59400
N661        N  0.54710833  0.08989572  0.87473802    -0.04400
N662        N  0.55265950  0.12379148  0.87076107    -0.60500
Mn663      Mn  0.52626361  0.05623801  0.93069196     1.18400
C664        C  0.56943274  0.13284189  0.83180342     0.97800
C665        C  0.63537775  0.07027258  0.93483503     0.98500
N666        N  0.90449106  0.44471236  0.87190297    -0.06700
N667        N  0.87007750  0.43763111  0.86837844    -0.63000
N668        N  0.94922476  0.40103188  0.88863604    -0.05500
N669        N  0.94327125  0.36677656  0.89121539    -0.63700
N670        N  0.93685634  0.41163501  0.92342259    -0.06200
N671        N  0.92194697  0.38454831  0.95027147    -0.63300
N672        N  0.91611530  0.43310738  0.83725838    -0.05100
N673        N  0.88956816  0.41740457  0.80964690    -0.64000
Mn674      Mn  0.93724849  0.46526705  0.92860713     1.10700
C675        C  0.86115394  0.42073622  0.82940979     0.99000
C676        C  0.92652662  0.35686960  0.92993131     0.99100
N677        N  0.55715675  0.47189898  0.83304141    -0.06200
N678        N  0.58596703  0.46696930  0.82822848    -0.61600
N679        N  0.99268136  0.47185054  0.78009076    -0.05500
N680        N  0.97919967  0.46423967  0.74259707    -0.58300
N681        N  0.52537932  0.00466032  0.78132530    -0.06800
N682        N  0.53485123  0.02005008  0.74484231    -0.61100
N683        N  0.52475549  0.43881103  0.83158981    -0.05800
N684        N  0.53091147  0.41065208  0.82571700    -0.58300
Mn685      Mn  0.55932123  0.02577954  0.83635245     1.20200
Mn686      Mn  0.97026429  0.43533854  0.83357212     1.10100
Cl687      Cl  0.99821855  0.49565358  0.88235609    -0.86300
C688        C  0.56925887  0.42863909  0.82387436     0.96000
C689        C  0.00569513  0.49470646  0.72104528     0.95800
N690        N  0.98122885  0.49409745  0.48557279    -0.06500
N691        N  0.97406944  0.47982559  0.52232426    -0.58600
N692        N  0.97845329  0.05774604  0.43420306    -0.06100
N693        N  0.97304286  0.08629516  0.43594240    -0.60700
N694        N  0.94577769  0.02500041  0.43609320    -0.05700
N695        N  0.91737187  0.03056729  0.43934509    -0.58600
N696        N  0.51393822  0.02685141  0.48445747    -0.05400
N697        N  0.52975284  0.03559961  0.52083908    -0.61100
C698        C  0.00452679  0.50573987  0.54402389     0.95700
C699        C  0.93482130  0.06894293  0.43895931     0.98300
N700        N  0.55965441  0.07965205  0.33636866    -0.06600
N701        N  0.57285707  0.10525496  0.30801380    -0.59200
N702        N  0.58573996  0.06166574  0.42085508    -0.04800
N703        N  0.61384349  0.07769301  0.44636698    -0.60400
N704        N  0.59509088  0.04878132  0.38555403    -0.06700
N705        N  0.62958793  0.05542286  0.38639003    -0.59400
N706        N  0.54961192  0.09188871  0.37166681    -0.04400
N707        N  0.55528948  0.12582509  0.36795158    -0.60500
Mn708      Mn  0.53248595  0.06057145  0.42874683     1.18400
C709        C  0.56959058  0.13373274  0.32809363     0.97800
C710        C  0.64085793  0.07333664  0.42450046     0.98500
N711        N  0.90703204  0.44818884  0.38122969    -0.06700
N712        N  0.87281810  0.44218093  0.38042629    -0.63000
N713        N  0.95320664  0.40526427  0.39570131    -0.05500
N714        N  0.94884203  0.37197396  0.40040879    -0.63700
N715        N  0.94288238  0.41765593  0.43066957    -0.06200
N716        N  0.93076205  0.39283593  0.45971450    -0.63300
N717        N  0.91607909  0.43494056  0.34604757    -0.05100
N718        N  0.88797129  0.41937605  0.32053218    -0.64000
Mn719      Mn  0.94333656  0.47088915  0.43418454     1.10700
C720        C  0.86135433  0.42452049  0.34230952     0.99000
C721        C  0.93534878  0.36485268  0.44064797     0.99100
N722        N  0.55629883  0.47231714  0.33000484    -0.06200
N723        N  0.58479093  0.46688798  0.32562227    -0.61600
N724        N  0.98777746  0.46967349  0.28224721    -0.05500
N725        N  0.97150001  0.46036565  0.24612581    -0.58300
N726        N  0.52029837  0.00266348  0.28065318    -0.06800
N727        N  0.52670534  0.01650234  0.24366846    -0.61100
N728        N  0.52372327  0.43953671  0.33229037    -0.05800
N729        N  0.52928785  0.41109444  0.32969141    -0.58300
Mn730      Mn  0.55870640  0.02623322  0.33224691     1.20200
Mn731      Mn  0.96959019  0.43623842  0.33815738     1.10100
Cl732      Cl  0.00103301  0.49850893  0.38328006    -0.86300
C733        C  0.56746410  0.42851274  0.32532383     0.96000
C734        C  0.99603862  0.49001574  0.22236891     0.95800
C735        C  0.53923695  0.52267771  0.65357774    -0.12600
C736        C  0.00506616  0.49820461  0.67603401     0.04400
C737        C  0.97122814  0.97646198  0.65471134    -0.07900
C738        C  0.97215978  0.97901446  0.61170314    -0.08600
C739        C  0.00624925  0.50344883  0.58911651    -0.03200
C740        C  0.54010438  0.52539458  0.61039376     0.03600
N741        N  0.57568868  0.54949353  0.58853172     0.66100
H742        H  0.56560161  0.53927947  0.66939013     0.15000
H743        H  0.94565799  0.96234965  0.59615000     0.14700
N744        N  0.93540174  0.95289152  0.67644376     0.73800
O745        O  0.58983261  0.58507321  0.59022460    -0.39600
O746        O  0.59564038  0.53615642  0.57346354    -0.39600
O747        O  0.91699539  0.96739978  0.69336698    -0.40300
O748        O  0.91956667  0.91705245  0.67298950    -0.40300
C749        C  0.46402062  0.46482369  0.11034654    -0.12600
C750        C  0.99270417  0.49751299  0.09032014     0.04400
C751        C  0.02123361  0.02805602  0.11460311    -0.07900
C752        C  0.02087728  0.02513632  0.15751857    -0.08600
C753        C  0.99259703  0.49226246  0.17747419    -0.03200
C754        C  0.46354928  0.46202662  0.15350116     0.03600
N755        N  0.43348964  0.42822964  0.17219927     0.66100
H756        H  0.44159130  0.44121376  0.09249225     0.15000
H757        H  0.04338415  0.04885446  0.17519347     0.14700
N758        N  0.05088728  0.06235895  0.09641065     0.73800
O759        O  0.40552873  0.42824611  0.19127700    -0.39600
O760        O  0.43184746  0.39704536  0.16384945    -0.39600
O761        O  0.04866191  0.09161923  0.10011681    -0.40300
O762        O  0.08181633  0.06532250  0.08318139    -0.40300
C763        C  0.63807972  0.22866229  0.28157408    -0.12600
C764        C  0.62241637  0.24994584  0.29934023     0.04400
C765        C  0.58622165  0.23083842  0.32068606    -0.07900
C766        C  0.56836362  0.19211878  0.32733671    -0.08600
C767        C  0.58520418  0.17150130  0.31198005    -0.03200
C768        C  0.61940855  0.18949648  0.28705702     0.03600
N769        N  0.63696350  0.16920157  0.26967257     0.66100
H770        H  0.66525248  0.24258203  0.26429548     0.15000
H771        H  0.54230960  0.17870286  0.34606035     0.14700
N772        N  0.56823836  0.25060204  0.33864165     0.73800
O773        O  0.62678626  0.15007348  0.23511901    -0.39600
O774        O  0.66623892  0.17506883  0.28531729    -0.39600
O775        O  0.54096960  0.24710184  0.32076197    -0.40300
O776        O  0.57444929  0.26503551  0.37572786    -0.40300
C777        C  0.76183189  0.40325532  0.33661562    -0.12600
C778        C  0.74595879  0.37042906  0.30922025     0.04400
C779        C  0.76905361  0.35693999  0.29076975    -0.07900
C780        C  0.80716460  0.37601899  0.30047611    -0.08600
C781        C  0.82258720  0.40806756  0.32900598    -0.03200
C782        C  0.79962764  0.42191387  0.34687954     0.03600
N783        N  0.81401456  0.45455800  0.37596602     0.66100
H784        H  0.74448030  0.41382027  0.35146982     0.15000
H785        H  0.82437664  0.36492802  0.28662596     0.14700
N786        N  0.75429108  0.32397825  0.26219081     0.73800
O787        O  0.82979157  0.48748981  0.36265201    -0.39600
O788        O  0.80552172  0.45008343  0.41463121    -0.39600
O789        O  0.75282953  0.32729844  0.22400955    -0.40300
O790        O  0.74801520  0.29295240  0.27375381    -0.40300
C791        C  0.62718795  0.42940266  0.32453560    -0.12600
C792        C  0.58786459  0.40833968  0.31989329     0.04400
C793        C  0.56895886  0.36854913  0.31051042    -0.07900
C794        C  0.58957393  0.35082136  0.30623939    -0.08600
C795        C  0.62903891  0.37175906  0.31041840    -0.03200
C796        C  0.64789242  0.41166319  0.31986595     0.03600
N797        N  0.68783951  0.43474392  0.32529028     0.66100
H798        H  0.64210049  0.45992204  0.33205602     0.15000
H799        H  0.57438698  0.32038011  0.29849834     0.14700
N800        N  0.52920781  0.34575639  0.30342041     0.73800
O801        O  0.71026348  0.45181637  0.29471001    -0.39600
O802        O  0.69974558  0.44402313  0.36179303    -0.39600
O803        O  0.51721890  0.35023437  0.27144361    -0.40300
O804        O  0.50767912  0.31665021  0.32403077    -0.40300
C805        C  0.63612444  0.22601117  0.77978673    -0.12600
C806        C  0.62322082  0.24897267  0.79991171     0.04400
C807        C  0.58963020  0.23200478  0.82633933    -0.07900
C808        C  0.57119868  0.19327885  0.83373302    -0.08600
C809        C  0.58528959  0.17082543  0.81552861    -0.03200
C810        C  0.61708034  0.18702231  0.78658871     0.03600
N811        N  0.63109149  0.16477430  0.76476086     0.66100
H812        H  0.66116558  0.23842866  0.75852708     0.15000
H813        H  0.54665701  0.18112543  0.85570727     0.14700
N814        N  0.57529239  0.25395888  0.84848277     0.73800
O815        O  0.61255674  0.14070233  0.73566682    -0.39600
O816        O  0.66478209  0.17410456  0.76891624    -0.39600
O817        O  0.54015238  0.24114176  0.84980784    -0.40300
O818        O  0.59616821  0.28211926  0.87284696    -0.40300
C819        C  0.76611248  0.35123997  0.78218890    -0.12600
C820        C  0.74667974  0.37024181  0.79325527     0.04400
C821        C  0.76712864  0.40799082  0.81159225    -0.07900
C822        C  0.80470240  0.42415632  0.82209000    -0.08600
C823        C  0.82323361  0.40424105  0.81316289    -0.03200
C824        C  0.80412481  0.36798326  0.79159605     0.03600
N825        N  0.82182862  0.34651696  0.78193535     0.66100
H826        H  0.75130794  0.32254320  0.76758163     0.15000
H827        H  0.81939076  0.45239495  0.83783209     0.14700
N828        N  0.75000348  0.42997278  0.82121813     0.73800
O829        O  0.82514542  0.33013857  0.81052480    -0.39600
O830        O  0.82872430  0.33910421  0.74418984    -0.39600
O831        O  0.73903757  0.43363373  0.85852202    -0.40300
O832        O  0.75267153  0.45144600  0.79441721    -0.40300
C833        C  0.56975339  0.37010602  0.80051418    -0.12600
C834        C  0.59004602  0.40883251  0.81430791     0.04400
C835        C  0.62967100  0.42780224  0.81759592    -0.07900
C836        C  0.64782689  0.40764340  0.80831244    -0.08600
C837        C  0.62758500  0.36873836  0.79490574    -0.03200
C838        C  0.58803697  0.35009184  0.78988087     0.03600
N839        N  0.56614414  0.31144378  0.77271716     0.66100
H840        H  0.53950569  0.35541408  0.79669662     0.15000
H841        H  0.67794864  0.42260737  0.81259635     0.14700
N842        N  0.65194063  0.46727311  0.83132754     0.73800
O843        O  0.53350548  0.28868137  0.78876535    -0.39600
O844        O  0.57639551  0.30210082  0.73757443    -0.39600
O845        O  0.66398324  0.47648406  0.86776192    -0.40300
O846        O  0.66558609  0.49238865  0.80484024    -0.40300
C847        C  0.91311906  0.14685844  0.44331783    -0.12600
C848        C  0.87551107  0.12792014  0.46024988     0.04400
C849        C  0.85746668  0.08923464  0.46970437    -0.07900
C850        C  0.87703077  0.07035997  0.46116009    -0.08600
C851        C  0.91460169  0.08937483  0.44435697    -0.03200
C852        C  0.93259327  0.12793919  0.43505444     0.03600
N853        N  0.96960583  0.14754012  0.41453245     0.66100
H854        H  0.92709075  0.17613333  0.43476252     0.15000
H855        H  0.86310380  0.04093638  0.46914879     0.14700
N856        N  0.82004460  0.06913582  0.48961715     0.73800
O857        O  0.97332788  0.14172720  0.37550247    -0.39600
O858        O  0.99724359  0.17474098  0.43380488    -0.39600
O859        O  0.79611739  0.03539649  0.47675216    -0.40300
O860        O  0.81286183  0.08270366  0.52377427    -0.40300
C861        C  0.91677043  0.26848731  0.46090255    -0.12600
C862        C  0.87708672  0.24793423  0.46909579     0.04400
C863        C  0.85836390  0.26829552  0.47439920    -0.07900
C864        C  0.87872142  0.30730551  0.46803080    -0.08600
C865        C  0.91758309  0.32683590  0.45677683    -0.03200
C866        C  0.93705081  0.30771891  0.45499655     0.03600
N867        N  0.97744131  0.32802636  0.44803151     0.66100
H868        H  0.93211075  0.25399780  0.45787256     0.15000
H869        H  0.86359185  0.32198035  0.46977664     0.14700
N870        N  0.81850771  0.24979771  0.48493529     0.73800
O871        O  0.99822787  0.34964940  0.47721452    -0.39600
O872        O  0.99216455  0.31987411  0.41565965    -0.39600
O873        O  0.80656041  0.24500000  0.52283061    -0.40300
O874        O  0.79622538  0.24418556  0.45752349    -0.40300
C875        C  0.73630668  0.14168458  0.46998499    -0.12600
C876        C  0.75679050  0.12477048  0.45379219     0.04400
C877        C  0.73766697  0.08898155  0.43082844    -0.07900
C878        C  0.69926898  0.07199336  0.42338285    -0.08600
C879        C  0.67959852  0.09003681  0.43776603    -0.03200
C880        C  0.69820618  0.12495405  0.46184886     0.03600
N881        N  0.67991464  0.14540271  0.47529286     0.66100
H882        H  0.75028023  0.16886715  0.48798010     0.15000
H883        H  0.68508057  0.04513676  0.40475304     0.14700
N884        N  0.75697437  0.07053854  0.41254885     0.73800
O885        O  0.67347608  0.15047862  0.51389700    -0.39600
O886        O  0.67632692  0.16383643  0.44937963    -0.39600
O887        O  0.74281327  0.03566134  0.41784139    -0.40300
O888        O  0.78323454  0.08646475  0.38457602    -0.40300
C889        C  0.84849600  0.08398080  0.95823052    -0.12600
C890        C  0.86803049  0.12215019  0.97446893     0.04400
C891        C  0.90659617  0.13967447  0.98330511    -0.07900
C892        C  0.92524032  0.11990578  0.97314778    -0.08600
C893        C  0.90594379  0.08225638  0.95538733    -0.03200
C894        C  0.86686795  0.06399442  0.94894008     0.03600
N895        N  0.84559727  0.02561201  0.93141728     0.66100
H896        H  0.81888634  0.06962492  0.95138948     0.15000
H897        H  0.95490599  0.13400524  0.97977727     0.14700
N898        N  0.92687618  0.17689142  0.00400316     0.73800
O899        O  0.82609568  0.99855488  0.95532714    -0.39600
O900        O  0.84120162  0.01945790  0.89252243    -0.39600
O901        O  0.92531749  0.18037102  0.04352071    -0.40300
O902        O  0.95125507  0.20508149  0.98346736    -0.40300
C903        C  0.90454594  0.25680088  0.94177762    -0.12600
C904        C  0.87236292  0.24240911  0.96966302     0.04400
C905        C  0.85983061  0.26681304  0.98654809    -0.07900
C906        C  0.87918291  0.30463306  0.97497434    -0.08600
C907        C  0.91018370  0.31843438  0.94541056    -0.03200
C908        C  0.92300877  0.29412863  0.92896617     0.03600
N909        N  0.95394660  0.30638929  0.89820664     0.66100
H910        H  0.91427713  0.23835496  0.92803062     0.15000
H911        H  0.86870873  0.32268420  0.98775237     0.14700
N912        N  0.82704494  0.25344653  0.01480979     0.73800
O913        O  0.98727087  0.32115418  0.90962349    -0.39600
O914        O  0.94725615  0.29652534  0.86003172    -0.39600
O915        O  0.83107757  0.25932438  0.05377328    -0.40300
O916        O  0.79542085  0.24283209  0.00101458    -0.40300
C917        C  0.72876593  0.13681826  0.98687181    -0.12600
C918        C  0.75010582  0.12097521  0.97013036     0.04400
C919        C  0.73218932  0.08651082  0.94481673    -0.07900
C920        C  0.69416038  0.06956740  0.93570634    -0.08600
C921        C  0.67343108  0.08642577  0.95071278    -0.03200
C922        C  0.69080956  0.12002374  0.97726901     0.03600
N923        N  0.67153451  0.13927801  0.99177185     0.66100
H924        H  0.74205987  0.16324345  0.00626477     0.15000
H925        H  0.68125938  0.04389682  0.91508641     0.14700
N926        N  0.75288504  0.07003713  0.92508713     0.73800
O927        O  0.66194921  0.14040394  0.03018015    -0.39600
O928        O  0.66975648  0.16023461  0.96769658    -0.39600
O929        O  0.74249157  0.03642977  0.93226392    -0.40300
O930        O  0.77707287  0.08633092  0.89541089    -0.40300
C931        C  0.84825496  0.64337589  0.97861553     0.79900
N932        N  0.80976772  0.62382240  0.97770165    -0.78400
C933        C  0.79139914  0.64243224  0.97644299     0.82300
N934        N  0.81188028  0.68109157  0.97610803    -0.78400
C935        C  0.85032377  0.70113075  0.97681945     0.82400
N936        N  0.86837159  0.68205209  0.97744277    -0.80100
C937        C  0.85490282  0.64801804  0.46401817     0.79900
N938        N  0.87427070  0.68684329  0.46784897    -0.78400
C939        C  0.85570124  0.70550484  0.46839403     0.82300
N940        N  0.81767067  0.68480509  0.46415550    -0.78400
C941        C  0.79801404  0.64613909  0.45991521     0.82400
N942        N  0.81683161  0.62792803  0.45979572    -0.80100
C943        C  0.64763187  0.84785910  0.79055018     0.79900
N944        N  0.62762197  0.80946235  0.79307214    -0.78400
C945        C  0.64548681  0.79035237  0.79354674     0.82300
N946        N  0.68407112  0.81008052  0.79172723    -0.78400
C947        C  0.70475093  0.84871321  0.78973287     0.82400
N948        N  0.68622979  0.86732101  0.78934291    -0.80100
C949        C  0.64892643  0.85080173  0.30529841     0.79900
N950        N  0.62839979  0.81211116  0.30140483    -0.78400
C951        C  0.64548976  0.79200058  0.29854448     0.82300
N952        N  0.68389047  0.81101147  0.29943902    -0.78400
C953        C  0.70489879  0.84977577  0.30310280     0.82400
N954        N  0.68718288  0.86939790  0.30637425    -0.80100
N955        N  0.97184820  0.98707694  0.98390153    -0.06500
N956        N  0.96267264  0.97290533  0.02115401    -0.58600
N957        N  0.97153536  0.55264352  0.93356362    -0.06100
N958        N  0.96526145  0.58070215  0.94120435    -0.60700
N959        N  0.93915950  0.51942970  0.93262073    -0.05700
N960        N  0.91029985  0.52427853  0.93937659    -0.58600
N961        N  0.50421411  0.52029351  0.98454856    -0.05400
N962        N  0.51762457  0.52930223  0.02218103    -0.61100
C963        C  0.99159048  0.99948638  0.04475617     0.95700
C964        C  0.92689784  0.56261752  0.94446511     0.95500
N965        N  0.55971111  0.57886391  0.84050943    -0.06600
N966        N  0.57427458  0.60505175  0.81270027    -0.59200
N967        N  0.58050368  0.55839971  0.92713893    -0.04800
N968        N  0.60714679  0.57396848  0.95465121    -0.60400
N969        N  0.59188039  0.54642434  0.89264506    -0.06700
N970        N  0.62617271  0.55323439  0.89600516    -0.59400
N971        N  0.54710396  0.58989710  0.87472622    -0.04400
N972        N  0.55265840  0.62379405  0.87074645    -0.60500
Mn973      Mn  0.52625898  0.55624077  0.93068385     1.18400
C974        C  0.56943403  0.63284199  0.83178925     0.97800
C975        C  0.63537749  0.57028397  0.93483184     0.98500
N976        N  0.90448868  0.94470514  0.87192855    -0.06700
N977        N  0.87007275  0.93762001  0.86840933    -0.63000
N978        N  0.94922671  0.90102844  0.88865766    -0.05500
N979        N  0.94327448  0.86677406  0.89123945    -0.63700
N980        N  0.93686327  0.91163494  0.92344569    -0.06200
N981        N  0.92195900  0.88455145  0.95029820    -0.63300
N982        N  0.91610956  0.93309749  0.83728336    -0.05100
N983        N  0.88955817  0.91738918  0.80967688    -0.64000
Mn984      Mn  0.93725478  0.96526684  0.92862689     1.10700
C985        C  0.86114466  0.92071988  0.82944333     0.99000
C986        C  0.92653607  0.85687090  0.92995839     0.99100
N987        N  0.55715715  0.97189649  0.83304043    -0.06200
N988        N  0.58596754  0.96696696  0.82822303    -0.61600
N989        N  0.99266892  0.97183675  0.78010384    -0.05500
N990        N  0.97918112  0.96422523  0.74261311    -0.58300
N991        N  0.52537920  0.50465539  0.78131751    -0.06800
N992        N  0.53485782  0.52003236  0.74482612    -0.61100
N993        N  0.52475581  0.93880855  0.83158847    -0.05800
N994        N  0.53091204  0.91064966  0.82571021    -0.58300
Mn995      Mn  0.55931950  0.52578080  0.83634751     1.20200
Mn996      Mn  0.97025862  0.93532897  0.83358932     1.10100
Cl997      Cl  0.99821950  0.99564857  0.88236706    -0.86300
C998        C  0.56925966  0.92863691  0.82386552     0.96000
C999        C  0.00567452  0.99469090  0.72105824     0.95800
N1000       N  0.98120136  0.99407782  0.48558439    -0.06500
N1001       N  0.97403782  0.97979914  0.52233304    -0.58600
N1002       N  0.97846790  0.55776000  0.43419687    -0.06100
N1003       N  0.97305876  0.58631089  0.43595346    -0.60700
N1004       N  0.94579203  0.52501514  0.43609845    -0.05700
N1005       N  0.91738741  0.53058526  0.43937504    -0.58600
N1006       N  0.51394104  0.52682756  0.48445191    -0.05400
N1007       N  0.52976492  0.53556058  0.52082559    -0.61100
C1008       C  0.00449578  0.00570756  0.54403580     0.95700
C1009       C  0.93483780  0.56896163  0.43899265     0.98300
N1010       N  0.55964466  0.57964856  0.33637575    -0.06600
N1011       N  0.57283973  0.60525542  0.30802657    -0.59200
N1012       N  0.58573981  0.56165340  0.42084877    -0.04800
N1013       N  0.61384419  0.57767783  0.44635925    -0.60400
N1014       N  0.59509117  0.54877508  0.38554321    -0.06700
N1015       N  0.62958955  0.55541824  0.38637486    -0.59400
N1016       N  0.54960268  0.59187822  0.37167960    -0.04400
N1017       N  0.55527258  0.62581241  0.36797475    -0.60500
Mn1018     Mn  0.53248385  0.56055682  0.42875135     1.18400
C1019       C  0.56956846  0.63372723  0.32811709     0.97800
C1020       C  0.64085990  0.57332661  0.42448747     0.98500
N1021       N  0.90703325  0.94818585  0.38121228    -0.06700
N1022       N  0.87282537  0.94218973  0.38038954    -0.63000
N1023       N  0.95320446  0.90525892  0.39570582    -0.05500
N1024       N  0.94884229  0.87197058  0.40041908    -0.63700
N1025       N  0.94287242  0.91764898  0.43066937    -0.06200
N1026       N  0.93075095  0.89283166  0.45971672    -0.63300
N1027       N  0.91608861  0.93493777  0.34603571    -0.05100
N1028       N  0.88799284  0.91938271  0.32050550    -0.64000
Mn1029     Mn  0.94332267  0.97087743  0.43418186     1.10700
C1030       C  0.86137634  0.92453624  0.34226658     0.99000
C1031       C  0.93534453  0.86485114  0.44065755     0.99100
N1032       N  0.55629987  0.97231928  0.33002492    -0.06200
N1033       N  0.58479212  0.96689066  0.32565219    -0.61600
N1034       N  0.98779494  0.96967659  0.28225568    -0.05500
N1035       N  0.97152081  0.96037125  0.24613286    -0.58300
N1036       N  0.52029210  0.50266548  0.28064695    -0.06800
N1037       N  0.52669642  0.51650604  0.24366349    -0.61100
N1038       N  0.52372403  0.93953909  0.33230902    -0.05800
N1039       N  0.52928848  0.91109704  0.32971889    -0.58300
Mn1040     Mn  0.55870288  0.52623158  0.33223875     1.20200
Mn1041     Mn  0.96959863  0.93623646  0.33816228     1.10100
Cl1042     Cl  0.00102986  0.99850221  0.38329275    -0.86300
C1043       C  0.56746512  0.92851594  0.32535817     0.96000
C1044       C  0.99605929  0.99002426  0.22238004     0.95800
C1045       C  0.53922047  0.02271876  0.65359939    -0.12600
C1046       C  0.00504157  0.99818597  0.67604715     0.04400
C1047       C  0.97125955  0.47646254  0.65468844    -0.07900
C1048       C  0.97219432  0.47902566  0.61168288    -0.08600
C1049       C  0.00621859  0.00341223  0.58912701    -0.03200
C1050       C  0.54008514  0.02544510  0.61041809     0.03600
N1051       N  0.57566961  0.04954094  0.58855482     0.66100
H1052       H  0.56558800  0.03930864  0.66940770     0.15000
H1053       H  0.94569680  0.46234366  0.59612345     0.14700
N1054       N  0.93543564  0.45285582  0.67640683     0.73800
O1055       O  0.58980753  0.08511909  0.59023033    -0.39600
O1056       O  0.59562738  0.03620585  0.57350473    -0.39600
O1057       O  0.91697128  0.46731563  0.69328406    -0.40300
O1058       O  0.91965917  0.41702317  0.67297686    -0.40300
C1059       C  0.46400634  0.96483465  0.11036079    -0.12600
C1060       C  0.99271964  0.99752940  0.09033441     0.04400
C1061       C  0.02123645  0.52802702  0.11458187    -0.07900
C1062       C  0.02087665  0.52511079  0.15749813    -0.08600
C1063       C  0.99261627  0.99227385  0.17748654    -0.03200
C1064       C  0.46353916  0.96203839  0.15351490     0.03600
N1065       N  0.43346065  0.92825812  0.17222300     0.66100
H1066       H  0.44155990  0.94123618  0.09251410     0.15000
H1067       H  0.04339770  0.54881959  0.17516656     0.14700
N1068       N  0.05091687  0.56231127  0.09638017     0.73800
O1069       O  0.40551093  0.92830422  0.19128945    -0.39600
O1070       O  0.43179363  0.89705980  0.16389570    -0.39600
O1071       O  0.04873810  0.59159889  0.10008324    -0.40300
O1072       O  0.08182481  0.56522916  0.08314635    -0.40300
C1073       C  0.63805337  0.72866353  0.28161448    -0.12600
C1074       C  0.62240808  0.74995258  0.29942161     0.04400
C1075       C  0.58622420  0.73085080  0.32078917    -0.07900
C1076       C  0.56835611  0.69212552  0.32741681    -0.08600
C1077       C  0.58518076  0.67150077  0.31201914    -0.03200
C1078       C  0.61937381  0.68949384  0.28707794     0.03600
N1079       N  0.63691111  0.66919210  0.26965460     0.66100
H1080       H  0.66521572  0.74258010  0.26431959     0.15000
H1081       H  0.54231795  0.67871560  0.34615487     0.14700
N1082       N  0.56826540  0.75062509  0.33879519     0.73800
O1083       O  0.62673543  0.65010194  0.23508041    -0.39600
O1084       O  0.66616721  0.67501083  0.28529810    -0.39600
O1085       O  0.54096274  0.74711749  0.32098100    -0.40300
O1086       O  0.57454698  0.76508991  0.37586474    -0.40300
C1087       C  0.76190269  0.90335761  0.33647228    -0.12600
C1088       C  0.74597171  0.87043225  0.30922199     0.04400
C1089       C  0.76902419  0.85685440  0.29087998    -0.07900
C1090       C  0.80714245  0.87593995  0.30055784    -0.08600
C1091       C  0.82261581  0.90808413  0.32895165    -0.03200
C1092       C  0.79970722  0.92202404  0.34670692     0.03600
N1093       N  0.81416058  0.95477970  0.37563757     0.66100
H1094       H  0.74459242  0.91400098  0.35123929     0.15000
H1095       H  0.82431881  0.86477819  0.28680362     0.14700
N1096       N  0.75420987  0.82378762  0.26245229     0.73800
O1097       O  0.82999108  0.98765236  0.36214810    -0.39600
O1098       O  0.80568564  0.95047222  0.41432745    -0.39600
O1099       O  0.75268568  0.82695229  0.22423967    -0.40300
O1100       O  0.74794263  0.79281683  0.27417887    -0.40300
C1101       C  0.62718512  0.92940505  0.32461251    -0.12600
C1102       C  0.58786623  0.90834425  0.31993958     0.04400
C1103       C  0.56896488  0.86855689  0.31053700    -0.07900
C1104       C  0.58957968  0.85082944  0.30627709    -0.08600
C1105       C  0.62904108  0.87176560  0.31048348    -0.03200
C1106       C  0.64789019  0.91166634  0.31995117     0.03600
N1107       N  0.68783227  0.93474323  0.32540688     0.66100
H1108       H  0.64209345  0.95992207  0.33214923     0.15000
H1109       H  0.57439627  0.82039001  0.29852011     0.14700
N1110       N  0.52922074  0.84576908  0.30341102     0.73800
O1111       O  0.71027789  0.95180348  0.29483468    -0.39600
O1112       O  0.69971326  0.94403380  0.36192113    -0.39600
O1113       O  0.51725697  0.85026773  0.27142695    -0.40300
O1114       O  0.50767623  0.81664955  0.32399632    -0.40300
C1115       C  0.63614469  0.72601662  0.77979362    -0.12600
C1116       C  0.62321126  0.74896640  0.79987776     0.04400
C1117       C  0.58959629  0.73198571  0.82626710    -0.07900
C1118       C  0.57117239  0.69326221  0.83367022    -0.08600
C1119       C  0.58529325  0.67082331  0.81550936    -0.03200
C1120       C  0.61710950  0.68703098  0.78660502     0.03600
N1121       N  0.63116207  0.66479953  0.76483361     0.66100
H1122       H  0.66120675  0.73844189  0.75856457     0.15000
H1123       H  0.54661090  0.68109951  0.85561717     0.14700
N1124       N  0.57522359  0.75392501  0.84836513     0.73800
O1125       O  0.61270562  0.64076602  0.73567589    -0.39600
O1126       O  0.66482799  0.67411177  0.76911276    -0.39600
O1127       O  0.54008553  0.74110339  0.84961075    -0.40300
O1128       O  0.59605383  0.78206794  0.87277355    -0.40300
C1129       C  0.76610176  0.85121739  0.78222754    -0.12600
C1130       C  0.74667669  0.87023075  0.79326453     0.04400
C1131       C  0.76713003  0.90798466  0.81158811    -0.07900
C1132       C  0.80469970  0.92414569  0.82209958    -0.08600
C1133       C  0.82322251  0.90422020  0.81319987    -0.03200
C1134       C  0.80410890  0.86795386  0.79165163     0.03600
N1135       N  0.82180081  0.84647255  0.78202925     0.66100
H1136       H  0.75129376  0.82251569  0.76763336     0.15000
H1137       H  0.81939272  0.95239057  0.83782689     0.14700
N1138       N  0.75001431  0.92997801  0.82118284     0.73800
O1139       O  0.82516718  0.83016551  0.81065863    -0.39600
O1140       O  0.82863889  0.83897709  0.74429341    -0.39600
O1141       O  0.73906574  0.93367778  0.85848305    -0.40300
O1142       O  0.75267287  0.95142228  0.79435126    -0.40300
C1143       C  0.56976235  0.87011424  0.80046270    -0.12600
C1144       C  0.59004819  0.90883214  0.81429164     0.04400
C1145       C  0.62966982  0.92779777  0.81760400    -0.07900
C1146       C  0.64782783  0.90764132  0.80831616    -0.08600
C1147       C  0.62759189  0.86874371  0.79487809    -0.03200
C1148       C  0.58804963  0.85010413  0.78982039     0.03600
N1149       N  0.56616929  0.81147038  0.77261021     0.66100
H1150       H  0.53951876  0.85542844  0.79662189     0.15000
H1151       H  0.67794558  0.92260006  0.81262278     0.14700
N1152       N  0.65193295  0.96726131  0.83136606     0.73800
O1153       O  0.53350533  0.78870133  0.78859798    -0.39600
O1154       O  0.57646599  0.80215221  0.73748150    -0.39600
O1155       O  0.66393912  0.97644825  0.86781683    -0.40300
O1156       O  0.66560896  0.99239422  0.80489587    -0.40300
C1157       C  0.91313326  0.64687873  0.44337022    -0.12600
C1158       C  0.87552419  0.62793700  0.46029849     0.04400
C1159       C  0.85748695  0.58925627  0.46976576    -0.07900
C1160       C  0.87705215  0.57038260  0.46121960    -0.08600
C1161       C  0.91462091  0.58939713  0.44440854    -0.03200
C1162       C  0.93261188  0.62796348  0.43511159     0.03600
N1163       N  0.96963061  0.64757284  0.41460445     0.66100
H1164       H  0.92710241  0.67615297  0.43481369     0.15000
H1165       H  0.86312785  0.54096024  0.46921173     0.14700
N1166       N  0.82007221  0.56916379  0.48969640     0.73800
O1167       O  0.97336831  0.64176200  0.37557673    -0.39600
O1168       O  0.99725799  0.67477796  0.43388637    -0.39600
O1169       O  0.79613780  0.53542286  0.47684382    -0.40300
O1170       O  0.81290311  0.58274220  0.52385396    -0.40300
C1171       C  0.91676028  0.76849828  0.46097837    -0.12600
C1172       C  0.87706754  0.74793251  0.46910071     0.04400
C1173       C  0.85833279  0.76828248  0.47433579    -0.07900
C1174       C  0.87869208  0.80729208  0.46797043    -0.08600
C1175       C  0.91756593  0.82683377  0.45678492    -0.03200
C1176       C  0.93704128  0.80773028  0.45507431     0.03600
N1177       N  0.97743894  0.82805289  0.44818877     0.66100
H1178       H  0.93210918  0.75401928  0.45800520     0.15000
H1179       H  0.86355691  0.82195793  0.46966247     0.14700
N1180       N  0.81846387  0.74977419  0.48479393     0.73800
O1181       O  0.99817436  0.84964947  0.47741837    -0.39600
O1182       O  0.99221550  0.81993802  0.41583920    -0.39600
O1183       O  0.80646666  0.74504899  0.52267948    -0.40300
O1184       O  0.79622001  0.74409994  0.45730475    -0.40300
C1185       C  0.73630139  0.64166795  0.46999180    -0.12600
C1186       C  0.75678896  0.62475789  0.45379928     0.04400
C1187       C  0.73767158  0.58897457  0.43082604    -0.07900
C1188       C  0.69927577  0.57198751  0.42336820    -0.08600
C1189       C  0.67960114  0.59002692  0.43775315    -0.03200
C1190       C  0.69820338  0.62493904  0.46184618     0.03600
N1191       N  0.67990913  0.64538472  0.47529260     0.66100
H1192       H  0.75027058  0.66884690  0.48799415     0.15000
H1193       H  0.68509238  0.54513466  0.40473127     0.14700
N1194       N  0.75698482  0.57053706  0.41255091     0.73800
O1195       O  0.67346743  0.65045560  0.51389710    -0.39600
O1196       O  0.67632310  0.66382187  0.44938230    -0.39600
O1197       O  0.74284482  0.53566916  0.41787373    -0.40300
O1198       O  0.78322962  0.58645456  0.38456079    -0.40300
C1199       C  0.84849918  0.58399298  0.95816577    -0.12600
C1200       C  0.86802228  0.62214591  0.97445757     0.04400
C1201       C  0.90657694  0.63965567  0.98333263    -0.07900
C1202       C  0.92522215  0.61988857  0.97317159    -0.08600
C1203       C  0.90593778  0.58225644  0.95536168    -0.03200
C1204       C  0.86687313  0.56400945  0.94886465     0.03600
N1205       N  0.84562034  0.52565016  0.93127236     0.66100
H1206       H  0.81889949  0.56965103  0.95128833     0.15000
H1207       H  0.95487872  0.63397540  0.97983498     0.14700
N1208       N  0.92684387  0.67685558  0.00407136     0.73800
O1209       O  0.82607220  0.49855632  0.95512682    -0.39600
O1210       O  0.84128746  0.51955562  0.89236458    -0.39600
O1211       O  0.92530395  0.68029439  0.04359078    -0.40300
O1212       O  0.95120330  0.70507232  0.98355903    -0.40300
C1213       C  0.90453680  0.75679258  0.94178518    -0.12600
C1214       C  0.87237174  0.74241265  0.96969606     0.04400
C1215       C  0.85986302  0.76682836  0.98661010    -0.07900
C1216       C  0.87921636  0.80464786  0.97503320    -0.08600
C1217       C  0.91019611  0.81843704  0.94544115    -0.03200
C1218       C  0.92300201  0.79412028  0.92897402     0.03600
N1219       N  0.95392178  0.80636925  0.89819200     0.66100
H1220       H  0.91425080  0.73833744  0.92801887     0.15000
H1221       H  0.86875924  0.82270839  0.98783304     0.14700
N1222       N  0.82710366  0.75347562  0.01491033     0.73800
O1223       O  0.98725041  0.82110827  0.90958184    -0.39600
O1224       O  0.94720631  0.79651124  0.86002134    -0.39600
O1225       O  0.83117563  0.75936933  0.05386660    -0.40300
O1226       O  0.79546234  0.74285270  0.00115622    -0.40300
C1227       C  0.72875580  0.63680926  0.98690345    -0.12600
C1228       C  0.75010626  0.62098597  0.97013224     0.04400
C1229       C  0.73220119  0.58654110  0.94478552    -0.07900
C1230       C  0.69417303  0.56959755  0.93567293    -0.08600
C1231       C  0.67343121  0.58643564  0.95071122    -0.03200
C1232       C  0.69079770  0.62001195  0.97730286     0.03600
N1233       N  0.67150520  0.63923882  0.99185571     0.66100
H1234       H  0.74204123  0.66321902  0.00632329     0.15000
H1235       H  0.68128227  0.54394295  0.91502791     0.14700
N1236       N  0.75290802  0.57008905  0.92502742     0.73800
O1237       O  0.66190460  0.64030802  0.03026695    -0.39600
O1238       O  0.66972475  0.66022650  0.96782852    -0.39600
O1239       O  0.74252162  0.53647521  0.93216524    -0.40300
O1240       O  0.77710171  0.58641322  0.89536589    -0.40300
loop_ 
_geom_bond_atom_site_label_1 
_geom_bond_atom_site_label_2 
_geom_bond_distance 
_geom_bond_site_symmetry_2 
_ccdc_geom_bond_type 
C1            N2   1.360       .  A
C1            N6   1.360       .  A
C1          C270   1.489       .  S
N2            C3   1.357       .  A
C3            N4   1.357       .  A
C3          C298   1.482       .  S
N4            C5   1.357       .  A
C5            N6   1.360       .  A
C5          C284   1.480       .  S
C7            N8   1.361       .  A
C7           N12   1.357       .  A
C7          C228   1.478       .  S
N8            C9   1.359       .  A
C9           N10   1.355       .  A
C9          C242   1.488       .  S
N10          C11   1.355       .  A
C11          N12   1.353       .  A
C11         C256   1.478       .  S
C13          N14   1.355       .  A
C13          N18   1.360       .  A
C13         C217   1.486       .  S
N14          C15   1.354       .  A
C15          N16   1.359       .  A
C15         C186   1.478       .  S
N16          C17   1.361       .  A
C17          N18   1.359       .  A
C17         C200   1.490       .  S
C19          N20   1.355       .  A
C19          N24   1.354       .  A
C19         C175   1.483       .  S
N20          C21   1.353       .  A
C21          N22   1.358       .  A
C21         C144   1.477       .  S
N22          C23   1.358       .  A
C23          N24   1.357       .  A
C23         C158   1.474       .  S
N25          N26   1.320   1_556  A
N25         N961   1.316       .  A
N25         Mn54   2.203       .  S
N26          C33   1.354       .  A
N27          N29   1.316       .  A
N27          N28   1.321       .  A
N27        Mn663   2.203       .  S
N28          C34   1.354       .  A
N29          N30   1.319       .  A
N29        Mn364   2.201   1_545  S
N30          C34   1.353       .  A
N31          N32   1.318   1_556  A
N31         N955   1.316   1_445  A
N31         Mn43   2.198       .  S
N32         C963   1.352   1_445  A
C33         N962   1.352       .  A
C33         C130   1.484       .  S
C34         C273   1.483       .  S
N35          N41   1.314       .  A
N35          N36   1.320       .  A
N35         Mn65   2.189       .  S
N36          C44   1.351       .  A
N37          N38   1.323       .  A
N37          N39   1.315       .  A
N37         Mn43   2.212       .  S
N38          C45   1.356       .  A
N39          N40   1.318       .  A
N39         Mn65   2.189       .  S
N40          C45   1.351       .  A
N41          N42   1.319       .  A
N41         Mn43   2.205       .  S
N42          C44   1.355       .  A
Mn43        N647   2.203   1_455  S
Mn43       Cl997   2.550   1_445  S
C44         C189   1.480       .  S
C45         C301   1.480       .  S
N46          N47   1.319       .  A
N46          N52   1.316       .  A
N46         Mn54   2.204       .  S
N47          C55   1.352       .  A
N48          N50   1.315       .  A
N48          N49   1.319       .  A
N48         Mn66   2.195       .  S
N49          C56   1.352       .  A
N50          N51   1.322       .  A
N50         Mn54   2.211       .  S
N51          C56   1.356       .  A
N52          N53   1.322       .  A
N52         Mn66   2.206       .  S
N53          C55   1.354       .  A
Mn54        N339   2.201       .  S
Mn54        Cl67   2.541       .  S
C55         C203   1.478       .  S
C56         C287   1.483       .  S
N57          N58   1.318       .  A
N57          N63   1.314       .  A
N57        Mn375   2.185       .  S
N58          C68   1.351       .  A
N59          N60   1.319       .  A
N59         N991   1.315       .  A
N59         Mn66   2.200       .  S
N60          C69   1.354       .  A
N61          N62   1.317       .  A
N61         N989   1.315   1_445  A
N61         Mn65   2.183       .  S
N62         C999   1.350   1_545  A
N63          N64   1.319       .  A
N63        Mn686   2.198   1_455  S
N64          C68   1.354       .  A
Mn65        N367   2.185   1_545  S
Mn65       Cl997   2.540   1_445  S
Mn66        N683   2.198       .  S
Mn66        Cl67   2.550       .  S
Cl67       Mn973   2.550       .  S
Cl67       Mn995   2.540       .  S
C68         C214   1.479       .  S
C69         N992   1.350       .  A
C69         C116   1.475       .  S
N70          N71   1.314       .  A
N70        N1006   1.314       .  A
N70         Mn99   2.175       .  S
N71          C78   1.348       .  A
N72          N74   1.314       .  A
N72          N73   1.318       .  A
N72        Mn708   2.187       .  S
N73          C79   1.351       .  A
N74          N75   1.319       .  A
N74        Mn409   2.192   1_545  S
N75          C79   1.353       .  A
N76          N77   1.323       .  A
N76        N1000   1.314   1_445  A
N76         Mn88   2.205       .  S
N77        C1008   1.356       .  A
C78        N1007   1.356       .  A
C78         C119   1.475       .  S
C79         C231   1.475       .  S
N80          N86   1.315       .  A
N80          N81   1.320       .  A
N80        Mn110   2.191       .  S
N81          C89   1.352       .  A
N82          N83   1.319       .  A
N82          N84   1.315       .  A
N82         Mn88   2.190       .  S
N83          C90   1.352       .  A
N84          N85   1.317       .  A
N84        Mn110   2.190       .  S
N85          C90   1.351       .  A
N86          N87   1.317       .  A
N86         Mn88   2.195       .  S
N87          C89   1.352       .  A
Mn88        N692   2.187   1_455  S
Mn88      Cl1042   2.543   1_545  S
C89         C147   1.472       .  S
C90         C259   1.469       .  S
N91          N92   1.316       .  A
N91          N97   1.314       .  A
N91         Mn99   2.179       .  S
N92         C100   1.350       .  A
N93          N95   1.314       .  A
N93          N94   1.320       .  A
N93        Mn111   2.204       .  S
N94         C101   1.353       .  A
N95          N96   1.320       .  A
N95         Mn99   2.195       .  S
N96         C101   1.352       .  A
N97          N98   1.320       .  A
N97        Mn111   2.197       .  S
N98         C100   1.354       .  A
Mn99        N384   2.192       .  S
Mn99       Cl112   2.533       .  S
C100        C161   1.472       .  S
C101        C245   1.468       .  S
N102        N103   1.318       .  A
N102        N108   1.313       .  A
N102       Mn420   2.184       .  S
N103        C113   1.352       .  A
N104        N105   1.322       .  A
N104       N1036   1.315       .  A
N104       Mn111   2.205       .  S
N105        C114   1.355       .  A
N106        N107   1.317       .  A
N106       N1034   1.315   1_445  A
N106       Mn110   2.192       .  S
N107       C1044   1.352   1_445  A
N108        N109   1.316       .  A
N108       Mn731   2.181   1_455  S
N109        C113   1.350       .  A
Mn110       N412   2.184   1_545  S
Mn110     Cl1042   2.535   1_545  S
Mn111       N728   2.181       .  S
Mn111      Cl112   2.543       .  S
Cl112     Mn1018   2.543       .  S
Cl112     Mn1040   2.535       .  S
C113        C172   1.472       .  S
C114       N1037   1.352       .  A
C114        C133   1.483       .  S
C115        C120   1.400       .  A
C115        C736   1.407       .  A
C115        H122   1.083       .  S
C116        C735   1.407       .  A
C116        C427   1.408       .  A
C117        C118   1.393       .  A
C117        C426   1.408       .  A
C117        N124   1.429       .  S
C118        C429   1.405   1_565  A
C118        H123   1.083       .  S
C119        C428   1.405       .  A
C119        C740   1.409       .  A
C120        C739   1.409       .  A
C120        N121   1.429       .  S
N121        O125   1.262       .  A
N121        O126   1.262       .  A
N124        O128   1.262       .  A
N124        O127   1.262       .  A
C129        C134   1.402       .  A
C129        C750   1.406       .  A
C129        H136   1.084       .  S
C130        C749   1.406       .  A
C130        C441   1.413       .  A
C131        C132   1.396       .  A
C131        C440   1.413   1_545  A
C131        N138   1.429       .  S
C132        C443   1.404   1_545  A
C132        H137   1.084       .  S
C133        C442   1.404       .  A
C133        C754   1.413       .  A
C134        C753   1.413       .  A
C134        N135   1.429       .  S
N135        O139   1.262       .  A
N135        O140   1.262       .  A
N138        O142   1.262       .  A
N138        O141   1.262       .  A
C143        C144   1.405       .  A
C143        C148   1.400       .  A
C143        H150   1.079       .  S
C144        C145   1.414       .  A
C145        C146   1.395       .  A
C145        N152   1.430       .  S
C146        C147   1.400       .  A
C146        H151   1.069       .  S
C147        C148   1.409       .  A
C148        N149   1.429       .  S
N149        O153   1.262       .  A
N149        O154   1.262       .  A
N152        O156   1.262       .  A
N152        O155   1.262       .  A
C157        C158   1.403       .  A
C157        C162   1.394       .  A
C157        H164   1.082       .  S
C158        C159   1.410       .  A
C159        C160   1.399       .  A
C159        N166   1.429       .  S
C160        C161   1.403       .  A
C160        H165   1.083       .  S
C161        C162   1.411       .  A
C162        N163   1.430       .  S
N163        O167   1.262       .  A
N163        O168   1.262       .  A
N166        O170   1.262       .  A
N166        O169   1.262       .  A
C171        C172   1.403       .  A
C171        C176   1.397       .  A
C171        H178   1.083       .  S
C172        C173   1.411       .  A
C173        C174   1.393       .  A
C173        N180   1.432       .  S
C174        C175   1.405       .  A
C174        H179   1.081       .  S
C175        C176   1.416       .  A
C176        N177   1.429       .  S
N177        O181   1.262       .  A
N177        O182   1.262       .  A
N180        O184   1.262       .  A
N180        O183   1.262       .  A
C185        C186   1.403       .  A
C185        C190   1.402       .  A
C185        H192   1.084       .  S
C186        C187   1.416       .  A
C187        C188   1.399       .  A
C187        N194   1.435       .  S
C188        C189   1.401       .  A
C188        H193   1.084       .  S
C189        C190   1.414       .  A
C190        N191   1.431       .  S
N191        O195   1.262       .  A
N191        O196   1.262       .  A
N194        O198   1.262       .  A
N194        O197   1.263       .  A
C199        C200   1.407       .  A
C199        C204   1.403       .  A
C199        H206   1.084       .  S
C200        C201   1.417       .  A
C201        C202   1.400       .  A
C201        N208   1.428       .  S
C202        C203   1.400       .  A
C202        H207   1.084       .  S
C203        C204   1.410       .  A
C204        N205   1.430       .  S
N205        O209   1.262       .  A
N205        O210   1.262       .  A
N208        O212   1.262       .  A
N208        O211   1.262       .  A
C213        C214   1.402       .  A
C213        C218   1.401       .  A
C213        H220   1.083       .  S
C214        C215   1.411       .  A
C215        C216   1.397       .  A
C215        N222   1.430       .  S
C216        C217   1.405       .  A
C216        H221   1.080       .  S
C217        C218   1.418       .  A
C218        N219   1.435       .  S
N219        O223   1.263       .  A
N219        O224   1.262       .  A
N222        O226   1.262       .  A
N222        O225   1.262       .  A
C227        C228   1.404       .  A
C227        C232   1.397       .  A
C227        H234   1.084       .  S
C228        C229   1.416       .  A
C229        C230   1.399       .  A
C229        N236   1.434       .  S
C230        C231   1.401       .  A
C230        H235   1.084       .  S
C231        C232   1.410       .  A
C232        N233   1.429       .  S
N233        O237   1.262       .  A
N233        O238   1.262       .  A
N236        O240   1.262       .  A
N236        O239   1.262       .  A
C241        C242   1.409       .  A
C241        C246   1.402       .  A
C241        H248   1.083       .  S
C242        C243   1.419       .  A
C243        C244   1.397       .  A
C243        N250   1.429       .  S
C244        C245   1.397       .  A
C244        H249   1.084       .  S
C245        C246   1.405       .  A
C246        N247   1.429       .  S
N247        O251   1.262       .  A
N247        O252   1.261       .  A
N250        O254   1.262       .  A
N250        O253   1.262       .  A
C255        C256   1.405       .  A
C255        C260   1.395       .  A
C255        H262   1.083       .  S
C256        C257   1.417       .  A
C257        C258   1.399       .  A
C257        N264   1.433       .  S
C258        C259   1.401       .  A
C258        H263   1.084       .  S
C259        C260   1.408       .  A
C260        N261   1.430       .  S
N261        O265   1.262       .  A
N261        O266   1.262       .  A
N264        O268   1.262       .  A
N264        O267   1.262       .  A
C269        C270   1.406       .  A
C269        C274   1.398       .  A
C269        H276   1.082       .  S
C270        C271   1.414       .  A
C271        C272   1.403       .  A
C271        N278   1.429   1_556  S
C272        C273   1.405       .  A
C272        H277   1.084       .  S
C273        C274   1.411       .  A
C274        N275   1.429       .  S
N275        O279   1.262   1_545  A
N275        O280   1.262       .  A
N278        O282   1.262   1_554  A
N278        O281   1.262       .  A
C283        C284   1.403       .  A
C283        C288   1.400       .  A
C283        H290   1.083       .  S
C284        C285   1.411       .  A
C285        C286   1.401       .  A
C285        N292   1.429   1_556  S
C286        C287   1.405       .  A
C286        H291   1.083       .  S
C287        C288   1.413       .  A
C288        N289   1.429       .  S
N289        O293   1.262       .  A
N289        O294   1.262       .  A
N292        O296   1.262       .  A
N292        O295   1.262       .  A
C297        C298   1.405       .  A
C297        C302   1.402       .  A
C297        H304   1.083   1_556  S
C298        C299   1.414       .  A
C299        C300   1.399       .  A
C299        N306   1.431       .  S
C300        C301   1.403       .  A
C300        H305   1.083       .  S
C301        C302   1.411       .  A
C302        N303   1.429       .  S
N303        O307   1.262   1_556  A
N303        O308   1.262       .  A
N306        O310   1.262       .  A
N306        O309   1.262       .  A
C311        N312   1.360       .  A
C311        N316   1.360       .  A
C311        C580   1.489       .  S
N312        C313   1.357       .  A
C313        N314   1.357       .  A
C313        C608   1.482       .  S
N314        C315   1.357       .  A
C315        N316   1.360       .  A
C315        C594   1.480       .  S
C317        N318   1.361       .  A
C317        N322   1.357       .  A
C317        C538   1.478       .  S
N318        C319   1.359       .  A
C319        N320   1.355       .  A
C319        C552   1.488       .  S
N320        C321   1.355       .  A
C321        N322   1.353       .  A
C321        C566   1.478       .  S
C323        N324   1.355       .  A
C323        N328   1.360       .  A
C323        C527   1.486       .  S
N324        C325   1.354       .  A
C325        N326   1.359       .  A
C325        C496   1.478       .  S
N326        C327   1.361       .  A
C327        N328   1.359       .  A
C327        C510   1.490       .  S
C329        N330   1.355       .  A
C329        N334   1.354       .  A
C329        C485   1.483       .  S
N330        C331   1.353       .  A
C331        N332   1.358       .  A
C331        C454   1.477       .  S
N332        C333   1.358       .  A
C333        N334   1.357       .  A
C333        C468   1.474       .  S
N335        N336   1.320   1_556  A
N335        N651   1.316   1_565  A
N335       Mn364   2.203       .  S
N336        C343   1.354       .  A
N337        N339   1.316       .  A
N337        N338   1.321       .  A
N337       Mn973   2.203       .  S
N338        C344   1.354       .  A
N339        N340   1.319       .  A
N340        C344   1.353       .  A
N341        N645   1.316   1_455  A
N341        N342   1.318   1_556  A
N341       Mn353   2.198       .  S
N342        C653   1.352   1_455  A
C343        N652   1.352   1_565  A
C343        C440   1.484       .  S
C344        C583   1.484       .  S
N345        N351   1.314       .  A
N345        N346   1.320       .  A
N345       Mn375   2.189       .  S
N346        C354   1.351       .  A
N347        N348   1.323       .  A
N347        N349   1.315       .  A
N347       Mn353   2.212       .  S
N348        C355   1.356       .  A
N349        N350   1.318       .  A
N349       Mn375   2.189       .  S
N350        C355   1.351       .  A
N351        N352   1.319       .  A
N351       Mn353   2.205       .  S
N352        C354   1.355       .  A
Mn353       N957   2.203   1_455  S
Mn353      Cl687   2.550   1_455  S
C354        C499   1.480       .  S
C355        C611   1.480       .  S
N356        N357   1.319       .  A
N356        N362   1.316       .  A
N356       Mn364   2.204       .  S
N357        C365   1.352       .  A
N358        N360   1.315       .  A
N358        N359   1.319       .  A
N358       Mn376   2.195       .  S
N359        C366   1.352       .  A
N360        N361   1.322       .  A
N360       Mn364   2.210       .  S
N361        C366   1.356       .  A
N362        N363   1.322       .  A
N362       Mn376   2.206       .  S
N363        C365   1.354       .  A
Mn364      Cl377   2.541       .  S
C365        C513   1.478       .  S
C366        C597   1.483       .  S
N367        N368   1.318       .  A
N367        N373   1.314       .  A
N368        C378   1.351       .  A
N369        N370   1.319       .  A
N369        N681   1.315   1_565  A
N369       Mn376   2.200       .  S
N370        C379   1.354       .  A
N371        N679   1.315   1_455  A
N371        N372   1.317       .  A
N371       Mn375   2.183       .  S
N372        C689   1.350       .  A
N373        N374   1.319       .  A
N373       Mn996   2.198   1_455  S
N374        C378   1.354       .  A
Mn375      Cl687   2.540   1_455  S
Mn376       N993   2.198       .  S
Mn376      Cl377   2.550       .  S
Cl377      Mn663   2.550   1_565  S
Cl377      Mn685   2.540   1_565  S
C378        C524   1.479       .  S
C379        N682   1.350   1_565  A
C379        C426   1.475       .  S
N380        N381   1.314       .  A
N380        N696   1.314   1_565  A
N380       Mn409   2.175       .  S
N381        C388   1.348   1_565  A
N382        N384   1.314       .  A
N382        N383   1.318       .  A
N382      Mn1018   2.187       .  S
N383        C389   1.351       .  A
N384        N385   1.319       .  A
N385        C389   1.353       .  A
N386        N690   1.314   1_455  A
N386        N387   1.323       .  A
N386       Mn398   2.205       .  S
N387        C698   1.356       .  A
C388        N697   1.356       .  A
C388        C429   1.475       .  S
C389        C541   1.475       .  S
N390        N396   1.315       .  A
N390        N391   1.320       .  A
N390       Mn420   2.191       .  S
N391        C399   1.352       .  A
N392        N393   1.319       .  A
N392        N394   1.315       .  A
N392       Mn398   2.190       .  S
N393        C400   1.352       .  A
N394        N395   1.317       .  A
N394       Mn420   2.190       .  S
N395        C400   1.351       .  A
N396        N397   1.317       .  A
N396       Mn398   2.195       .  S
N397        C399   1.352       .  A
Mn398      N1002   2.187   1_455  S
Mn398      Cl732   2.543       .  S
C399        C457   1.472       .  S
C400        C569   1.469       .  S
N401        N402   1.316       .  A
N401        N407   1.314       .  A
N401       Mn409   2.179       .  S
N402        C410   1.350       .  A
N403        N405   1.314       .  A
N403        N404   1.320       .  A
N403       Mn421   2.204       .  S
N404        C411   1.353       .  A
N405        N406   1.320       .  A
N405       Mn409   2.195       .  S
N406        C411   1.352       .  A
N407        N408   1.320       .  A
N407       Mn421   2.197       .  S
N408        C410   1.354       .  A
Mn409      Cl422   2.533       .  S
C410        C471   1.472       .  S
C411        C555   1.468       .  S
N412        N413   1.318       .  A
N412        N418   1.313       .  A
N413        C423   1.352       .  A
N414        N415   1.322       .  A
N414        N726   1.315   1_565  A
N414       Mn421   2.205       .  S
N415        C424   1.355       .  A
N416        N724   1.315   1_455  A
N416        N417   1.317       .  A
N416       Mn420   2.192       .  S
N417        C734   1.352   1_455  A
N418        N419   1.316       .  A
N418      Mn1041   2.181   1_455  S
N419        C423   1.350       .  A
Mn420      Cl732   2.535       .  S
Mn421      N1038   2.181       .  S
Mn421      Cl422   2.543       .  S
Cl422      Mn708   2.543   1_565  S
Cl422      Mn730   2.535   1_565  S
C423        C482   1.472       .  S
C424        N727   1.352   1_565  A
C424        C443   1.483       .  S
C425       C1046   1.407   1_545  A
C425        C430   1.400       .  A
C425        H432   1.083       .  S
C426       C1045   1.407   1_565  A
C427        C428   1.393       .  A
C427        N434   1.429       .  S
C428        H433   1.083       .  S
C429       C1050   1.409       .  A
C430       C1049   1.409       .  A
C430        N431   1.429       .  S
N431        O435   1.262       .  A
N431        O436   1.262       .  A
N434        O438   1.262       .  A
N434        O437   1.262       .  A
C439       C1060   1.406       .  A
C439        C444   1.402       .  A
C439        H446   1.084       .  S
C440       C1059   1.406       .  A
C441        C442   1.396       .  A
C441        N448   1.429       .  S
C442        H447   1.084       .  S
C443       C1064   1.413       .  A
C444       C1063   1.413       .  A
C444        N445   1.429       .  S
N445        O449   1.262       .  A
N445        O450   1.262       .  A
N448        O452   1.262       .  A
N448        O451   1.262       .  A
C453        C454   1.405       .  A
C453        C458   1.401       .  A
C453        H460   1.079       .  S
C454        C455   1.414       .  A
C455        C456   1.395       .  A
C455        N462   1.430       .  S
C456        C457   1.400       .  A
C456        H461   1.069       .  S
C457        C458   1.409       .  A
C458        N459   1.429       .  S
N459        O463   1.262       .  A
N459        O464   1.262       .  A
N462        O466   1.262       .  A
N462        O465   1.262       .  A
C467        C468   1.403       .  A
C467        C472   1.394       .  A
C467        H474   1.082       .  S
C468        C469   1.410       .  A
C469        C470   1.399       .  A
C469        N476   1.429       .  S
C470        C471   1.404       .  A
C470        H475   1.083       .  S
C471        C472   1.411       .  A
C472        N473   1.430       .  S
N473        O477   1.262       .  A
N473        O478   1.262       .  A
N476        O480   1.262       .  A
N476        O479   1.262       .  A
C481        C482   1.403       .  A
C481        C486   1.397       .  A
C481        H488   1.083       .  S
C482        C483   1.411       .  A
C483        C484   1.393       .  A
C483        N490   1.432       .  S
C484        C485   1.405       .  A
C484        H489   1.081       .  S
C485        C486   1.416       .  A
C486        N487   1.429       .  S
N487        O491   1.262       .  A
N487        O492   1.262       .  A
N490        O494   1.262       .  A
N490        O493   1.262       .  A
C495        C496   1.403       .  A
C495        C500   1.402       .  A
C495        H502   1.084       .  S
C496        C497   1.416       .  A
C497        C498   1.399       .  A
C497        N504   1.435       .  S
C498        C499   1.401       .  A
C498        H503   1.084       .  S
C499        C500   1.414       .  A
C500        N501   1.431       .  S
N501        O505   1.262       .  A
N501        O506   1.262       .  A
N504        O508   1.262       .  A
N504        O507   1.263       .  A
C509        C510   1.407       .  A
C509        C514   1.403       .  A
C509        H516   1.084       .  S
C510        C511   1.417       .  A
C511        C512   1.400       .  A
C511        N518   1.428       .  S
C512        C513   1.400       .  A
C512        H517   1.084       .  S
C513        C514   1.410       .  A
C514        N515   1.430       .  S
N515        O519   1.262       .  A
N515        O520   1.262       .  A
N518        O522   1.262       .  A
N518        O521   1.262       .  A
C523        C524   1.402       .  A
C523        C528   1.401       .  A
C523        H530   1.083       .  S
C524        C525   1.411       .  A
C525        C526   1.397       .  A
C525        N532   1.430       .  S
C526        C527   1.405       .  A
C526        H531   1.080       .  S
C527        C528   1.418       .  A
C528        N529   1.435       .  S
N529        O533   1.263       .  A
N529        O534   1.262       .  A
N532        O536   1.262       .  A
N532        O535   1.262       .  A
C537        C538   1.404       .  A
C537        C542   1.397       .  A
C537        H544   1.084       .  S
C538        C539   1.416       .  A
C539        C540   1.399       .  A
C539        N546   1.434       .  S
C540        C541   1.401       .  A
C540        H545   1.084       .  S
C541        C542   1.410       .  A
C542        N543   1.429       .  S
N543        O547   1.262       .  A
N543        O548   1.262       .  A
N546        O550   1.262       .  A
N546        O549   1.262       .  A
C551        C552   1.409       .  A
C551        C556   1.402       .  A
C551        H558   1.083       .  S
C552        C553   1.419       .  A
C553        C554   1.397       .  A
C553        N560   1.429       .  S
C554        C555   1.397       .  A
C554        H559   1.084       .  S
C555        C556   1.405       .  A
C556        N557   1.429       .  S
N557        O561   1.262       .  A
N557        O562   1.261       .  A
N560        O564   1.262       .  A
N560        O563   1.262       .  A
C565        C566   1.405       .  A
C565        C570   1.395       .  A
C565        H572   1.083       .  S
C566        C567   1.417       .  A
C567        C568   1.399       .  A
C567        N574   1.433       .  S
C568        C569   1.401       .  A
C568        H573   1.084       .  S
C569        C570   1.408       .  A
C570        N571   1.430       .  S
N571        O575   1.262       .  A
N571        O576   1.262       .  A
N574        O578   1.262       .  A
N574        O577   1.262       .  A
C579        C580   1.406       .  A
C579        C584   1.398       .  A
C579        H586   1.082       .  S
C580        C581   1.414       .  A
C581        C582   1.403       .  A
C581        N588   1.429   1_556  S
C582        C583   1.405       .  A
C582        H587   1.084       .  S
C583        C584   1.411       .  A
C584        N585   1.429       .  S
N585        O589   1.262       .  A
N585        O590   1.262       .  A
N588        O592   1.262   1_554  A
N588        O591   1.262       .  A
C593        C594   1.404       .  A
C593        C598   1.400       .  A
C593        H600   1.083       .  S
C594        C595   1.411       .  A
C595        C596   1.401       .  A
C595        N602   1.429   1_556  S
C596        C597   1.405       .  A
C596        H601   1.083       .  S
C597        C598   1.413       .  A
C598        N599   1.429       .  S
N599        O603   1.262       .  A
N599        O604   1.262       .  A
N602        O606   1.262       .  A
N602        O605   1.262       .  A
C607        C608   1.405       .  A
C607        C612   1.402       .  A
C607        H614   1.083   1_556  S
C608        C609   1.414       .  A
C609        C610   1.399       .  A
C609        N616   1.431       .  S
C610        C611   1.403       .  A
C610        H615   1.083       .  S
C611        C612   1.411       .  A
C612        N613   1.429       .  S
N613        O617   1.262   1_556  A
N613        O618   1.262       .  A
N616        O620   1.262       .  A
N616        O619   1.262       .  A
C621        N622   1.360       .  A
C621        N626   1.360       .  A
C621        C890   1.489       .  S
N622        C623   1.357       .  A
C623        N624   1.357       .  A
C623        C918   1.482       .  S
N624        C625   1.357       .  A
C625        N626   1.360       .  A
C625        C904   1.480       .  S
C627        N628   1.361       .  A
C627        N632   1.357       .  A
C627        C848   1.478       .  S
N628        C629   1.359       .  A
C629        N630   1.355       .  A
C629        C862   1.488       .  S
N630        C631   1.355       .  A
C631        N632   1.353       .  A
C631        C876   1.478       .  S
C633        N634   1.355       .  A
C633        N638   1.360       .  A
C633        C837   1.486       .  S
N634        C635   1.354       .  A
C635        N636   1.359       .  A
C635        C806   1.478       .  S
N636        C637   1.361       .  A
C637        N638   1.359       .  A
C637        C820   1.490       .  S
C639        N640   1.355       .  A
C639        N644   1.354       .  A
C639        C795   1.483       .  S
N640        C641   1.353       .  A
C641        N642   1.358       .  A
C641        C764   1.477       .  S
N642        C643   1.358       .  A
C643        N644   1.357       .  A
C643        C778   1.474       .  S
N645        N646   1.320   1_556  A
N645       Mn674   2.203       .  S
N646        C653   1.354       .  A
N647        N649   1.316       .  A
N647        N648   1.321       .  A
N648        C654   1.354       .  A
N649        N650   1.319       .  A
N649       Mn984   2.201   1_545  S
N650        C654   1.353       .  A
N651        N652   1.318   1_556  A
N651       Mn663   2.198       .  S
C653        C750   1.484       .  S
C654        C893   1.484       .  S
N655        N661   1.314       .  A
N655        N656   1.320       .  A
N655       Mn685   2.189       .  S
N656        C664   1.351       .  A
N657        N658   1.323       .  A
N657        N659   1.315       .  A
N657       Mn663   2.212       .  S
N658        C665   1.356       .  A
N659        N660   1.318       .  A
N659       Mn685   2.189       .  S
N660        C665   1.351       .  A
N661        N662   1.319       .  A
N661       Mn663   2.205       .  S
N662        C664   1.355       .  A
C664        C809   1.480       .  S
C665        C921   1.480       .  S
N666        N667   1.319       .  A
N666        N672   1.316       .  A
N666       Mn674   2.204       .  S
N667        C675   1.352       .  A
N668        N670   1.315       .  A
N668        N669   1.319       .  A
N668       Mn686   2.195       .  S
N669        C676   1.352       .  A
N670        N671   1.322       .  A
N670       Mn674   2.211       .  S
N671        C676   1.356       .  A
N672        N673   1.322       .  A
N672       Mn686   2.206       .  S
N673        C675   1.354       .  A
Mn674       N959   2.201       .  S
Mn674      Cl687   2.541       .  S
C675        C823   1.478       .  S
C676        C907   1.483       .  S
N677        N678   1.318       .  A
N677        N683   1.314       .  A
N677       Mn995   2.185       .  S
N678        C688   1.351       .  A
N679        N680   1.319       .  A
N679       Mn686   2.200       .  S
N680        C689   1.354   1_655  A
N681        N682   1.317       .  A
N681       Mn685   2.183       .  S
N683        N684   1.319       .  A
N684        C688   1.354       .  A
Mn685       N987   2.185   1_545  S
Mn686      Cl687   2.550       .  S
C688        C834   1.479       .  S
C689        C736   1.475       .  S
N690        N691   1.314       .  A
N690       Mn719   2.175       .  S
N691        C698   1.348   1_655  A
N692        N694   1.314       .  A
N692        N693   1.318       .  A
N693        C699   1.351       .  A
N694        N695   1.319       .  A
N694      Mn1029   2.192   1_545  S
N695        C699   1.353       .  A
N696        N697   1.323       .  A
N696       Mn708   2.205       .  S
C698        C739   1.475       .  S
C699        C851   1.475       .  S
N700        N706   1.315       .  A
N700        N701   1.320       .  A
N700       Mn730   2.191       .  S
N701        C709   1.352       .  A
N702        N703   1.319       .  A
N702        N704   1.315       .  A
N702       Mn708   2.190       .  S
N703        C710   1.352       .  A
N704        N705   1.317       .  A
N704       Mn730   2.190       .  S
N705        C710   1.351       .  A
N706        N707   1.317       .  A
N706       Mn708   2.195       .  S
N707        C709   1.352       .  A
C709        C767   1.472       .  S
C710        C879   1.469       .  S
N711        N712   1.316       .  A
N711        N717   1.314       .  A
N711       Mn719   2.179       .  S
N712        C720   1.350       .  A
N713        N715   1.314       .  A
N713        N714   1.320       .  A
N713       Mn731   2.204       .  S
N714        C721   1.353       .  A
N715        N716   1.320       .  A
N715       Mn719   2.195       .  S
N716        C721   1.352       .  A
N717        N718   1.320       .  A
N717       Mn731   2.197       .  S
N718        C720   1.354       .  A
Mn719      N1004   2.192       .  S
Mn719      Cl732   2.533   1_655  S
C720        C781   1.472       .  S
C721        C865   1.468       .  S
N722        N723   1.318       .  A
N722        N728   1.313       .  A
N722      Mn1040   2.184       .  S
N723        C733   1.352       .  A
N724        N725   1.322       .  A
N724       Mn731   2.205       .  S
N725        C734   1.355       .  A
N726        N727   1.317       .  A
N726       Mn730   2.192       .  S
N728        N729   1.316       .  A
N729        C733   1.350       .  A
Mn730      N1032   2.184   1_545  S
Mn731      Cl732   2.543   1_655  S
C733        C792   1.472       .  S
C734        C753   1.483       .  S
C735        C740   1.400       .  A
C735        H742   1.083       .  S
C736       C1047   1.408   1_455  A
C737       C1046   1.408   1_655  A
C737        C738   1.393       .  A
C737        N744   1.429       .  S
C738       C1049   1.405   1_665  A
C738        H743   1.083       .  S
C739       C1048   1.405   1_455  A
C740        N741   1.429       .  S
N741        O745   1.262       .  A
N741        O746   1.262       .  A
N744        O748   1.262       .  A
N744        O747   1.262       .  A
C749        C754   1.402       .  A
C749        H756   1.084       .  S
C750       C1061   1.413   1_655  A
C751       C1060   1.413   1_445  A
C751        C752   1.396       .  A
C751        N758   1.429       .  S
C752       C1063   1.404   1_445  A
C752        H757   1.084       .  S
C753       C1062   1.404   1_655  A
C754        N755   1.429       .  S
N755        O759   1.262       .  A
N755        O760   1.262       .  A
N758        O762   1.262       .  A
N758        O761   1.262       .  A
C763        C764   1.405       .  A
C763        C768   1.401       .  A
C763        H770   1.079       .  S
C764        C765   1.414       .  A
C765        C766   1.395       .  A
C765        N772   1.430       .  S
C766        C767   1.400       .  A
C766        H771   1.069       .  S
C767        C768   1.409       .  A
C768        N769   1.429       .  S
N769        O773   1.262       .  A
N769        O774   1.262       .  A
N772        O776   1.262       .  A
N772        O775   1.262       .  A
C777        C778   1.403       .  A
C777        C782   1.394       .  A
C777        H784   1.083       .  S
C778        C779   1.410       .  A
C779        C780   1.399       .  A
C779        N786   1.429       .  S
C780        C781   1.404       .  A
C780        H785   1.083       .  S
C781        C782   1.411       .  A
C782        N783   1.430       .  S
N783        O787   1.262       .  A
N783        O788   1.262       .  A
N786        O790   1.262       .  A
N786        O789   1.262       .  A
C791        C792   1.403       .  A
C791        C796   1.397       .  A
C791        H798   1.083       .  S
C792        C793   1.411       .  A
C793        C794   1.393       .  A
C793        N800   1.432       .  S
C794        C795   1.405       .  A
C794        H799   1.081       .  S
C795        C796   1.416       .  A
C796        N797   1.429       .  S
N797        O801   1.262       .  A
N797        O802   1.262       .  A
N800        O804   1.262       .  A
N800        O803   1.262       .  A
C805        C806   1.403       .  A
C805        C810   1.402       .  A
C805        H812   1.084       .  S
C806        C807   1.416       .  A
C807        C808   1.399       .  A
C807        N814   1.435       .  S
C808        C809   1.401       .  A
C808        H813   1.084       .  S
C809        C810   1.414       .  A
C810        N811   1.431       .  S
N811        O815   1.262       .  A
N811        O816   1.262       .  A
N814        O818   1.262       .  A
N814        O817   1.263       .  A
C819        C820   1.407       .  A
C819        C824   1.403       .  A
C819        H826   1.084       .  S
C820        C821   1.417       .  A
C821        C822   1.400       .  A
C821        N828   1.428       .  S
C822        C823   1.400       .  A
C822        H827   1.084       .  S
C823        C824   1.410       .  A
C824        N825   1.430       .  S
N825        O829   1.262       .  A
N825        O830   1.262       .  A
N828        O832   1.262       .  A
N828        O831   1.262       .  A
C833        C834   1.402       .  A
C833        C838   1.401       .  A
C833        H840   1.083       .  S
C834        C835   1.411       .  A
C835        C836   1.397       .  A
C835        N842   1.430       .  S
C836        C837   1.405       .  A
C836        H841   1.080       .  S
C837        C838   1.418       .  A
C838        N839   1.435       .  S
N839        O843   1.263       .  A
N839        O844   1.262       .  A
N842        O846   1.262       .  A
N842        O845   1.262       .  A
C847        C848   1.404       .  A
C847        C852   1.397       .  A
C847        H854   1.084       .  S
C848        C849   1.416       .  A
C849        C850   1.399       .  A
C849        N856   1.434       .  S
C850        C851   1.401       .  A
C850        H855   1.084       .  S
C851        C852   1.410       .  A
C852        N853   1.429       .  S
N853        O857   1.262       .  A
N853        O858   1.262       .  A
N856        O860   1.262       .  A
N856        O859   1.262       .  A
C861        C862   1.409       .  A
C861        C866   1.402       .  A
C861        H868   1.083       .  S
C862        C863   1.419       .  A
C863        C864   1.397       .  A
C863        N870   1.429       .  S
C864        C865   1.397       .  A
C864        H869   1.084       .  S
C865        C866   1.405       .  A
C866        N867   1.429       .  S
N867        O871   1.262       .  A
N867        O872   1.261       .  A
N870        O874   1.262       .  A
N870        O873   1.262       .  A
C875        C876   1.405       .  A
C875        C880   1.395       .  A
C875        H882   1.083       .  S
C876        C877   1.417       .  A
C877        C878   1.399       .  A
C877        N884   1.433       .  S
C878        C879   1.401       .  A
C878        H883   1.084       .  S
C879        C880   1.408       .  A
C880        N881   1.430       .  S
N881        O885   1.262       .  A
N881        O886   1.262       .  A
N884        O888   1.262       .  A
N884        O887   1.262       .  A
C889        C890   1.406       .  A
C889        C894   1.398       .  A
C889        H896   1.082       .  S
C890        C891   1.414       .  A
C891        C892   1.403       .  A
C891        N898   1.429   1_556  S
C892        C893   1.405       .  A
C892        H897   1.084       .  S
C893        C894   1.411       .  A
C894        N895   1.429       .  S
N895        O899   1.262   1_545  A
N895        O900   1.262       .  A
N898        O902   1.262   1_554  A
N898        O901   1.262       .  A
C903        C904   1.404       .  A
C903        C908   1.400       .  A
C903        H910   1.083       .  S
C904        C905   1.411       .  A
C905        C906   1.401       .  A
C905        N912   1.429   1_556  S
C906        C907   1.405       .  A
C906        H911   1.083       .  S
C907        C908   1.413       .  A
C908        N909   1.429       .  S
N909        O913   1.262       .  A
N909        O914   1.262       .  A
N912        O916   1.262       .  A
N912        O915   1.262       .  A
C917        C918   1.405       .  A
C917        C922   1.402       .  A
C917        H924   1.083   1_556  S
C918        C919   1.414       .  A
C919        C920   1.399       .  A
C919        N926   1.431       .  S
C920        C921   1.403       .  A
C920        H925   1.083       .  S
C921        C922   1.411       .  A
C922        N923   1.429       .  S
N923        O927   1.262   1_556  A
N923        O928   1.262       .  A
N926        O930   1.262       .  A
N926        O929   1.262       .  A
C931        N932   1.360       .  A
C931        N936   1.360       .  A
C931       C1200   1.489       .  S
N932        C933   1.357       .  A
C933        N934   1.357       .  A
C933       C1228   1.482       .  S
N934        C935   1.357       .  A
C935        N936   1.360       .  A
C935       C1214   1.480       .  S
C937        N938   1.361       .  A
C937        N942   1.357       .  A
C937       C1158   1.478       .  S
N938        C939   1.359       .  A
C939        N940   1.355       .  A
C939       C1172   1.488       .  S
N940        C941   1.355       .  A
C941        N942   1.353       .  A
C941       C1186   1.478       .  S
C943        N944   1.355       .  A
C943        N948   1.360       .  A
C943       C1147   1.486       .  S
N944        C945   1.354       .  A
C945        N946   1.359       .  A
C945       C1116   1.478       .  S
N946        C947   1.361       .  A
C947        N948   1.359       .  A
C947       C1130   1.490       .  S
C949        N950   1.355       .  A
C949        N954   1.354       .  A
C949       C1105   1.483       .  S
N950        C951   1.353       .  A
C951        N952   1.358       .  A
C951       C1074   1.477       .  S
N952        C953   1.358       .  A
C953        N954   1.357       .  A
C953       C1088   1.474       .  S
N955        N956   1.320   1_556  A
N955       Mn984   2.203       .  S
N956        C963   1.354       .  A
N957        N959   1.316       .  A
N957        N958   1.321       .  A
N958        C964   1.354       .  A
N959        N960   1.319       .  A
N960        C964   1.353       .  A
N961        N962   1.318   1_556  A
N961       Mn973   2.198       .  S
C963       C1060   1.484       .  S
C964       C1203   1.484       .  S
N965        N971   1.314       .  A
N965        N966   1.320       .  A
N965       Mn995   2.189       .  S
N966        C974   1.351       .  A
N967        N968   1.323       .  A
N967        N969   1.315       .  A
N967       Mn973   2.212       .  S
N968        C975   1.356       .  A
N969        N970   1.318       .  A
N969       Mn995   2.189       .  S
N970        C975   1.351       .  A
N971        N972   1.319       .  A
N971       Mn973   2.205       .  S
N972        C974   1.355       .  A
C974       C1119   1.480       .  S
C975       C1231   1.480       .  S
N976        N977   1.319       .  A
N976        N982   1.316       .  A
N976       Mn984   2.204       .  S
N977        C985   1.352       .  A
N978        N980   1.315       .  A
N978        N979   1.319       .  A
N978       Mn996   2.195       .  S
N979        C986   1.352       .  A
N980        N981   1.322       .  A
N980       Mn984   2.211       .  S
N981        C986   1.356       .  A
N982        N983   1.322       .  A
N982       Mn996   2.206       .  S
N983        C985   1.354       .  A
Mn984      Cl997   2.541       .  S
C985       C1133   1.478       .  S
C986       C1217   1.483       .  S
N987        N988   1.318       .  A
N987        N993   1.314       .  A
N988        C998   1.351       .  A
N989        N990   1.319       .  A
N989       Mn996   2.200       .  S
N990        C999   1.354   1_655  A
N991        N992   1.317       .  A
N991       Mn995   2.183       .  S
N993        N994   1.319       .  A
N994        C998   1.354       .  A
Mn996      Cl997   2.550       .  S
C998       C1144   1.479       .  S
C999       C1046   1.475       .  S
N1000      N1001   1.314       .  A
N1000     Mn1029   2.175       .  S
N1001      C1008   1.348   1_665  A
N1002      N1004   1.314       .  A
N1002      N1003   1.318       .  A
N1003      C1009   1.351       .  A
N1004      N1005   1.319       .  A
N1005      C1009   1.353       .  A
N1006      N1007   1.323       .  A
N1006     Mn1018   2.205       .  S
C1008      C1049   1.475       .  S
C1009      C1161   1.475       .  S
N1010      N1016   1.315       .  A
N1010      N1011   1.320       .  A
N1010     Mn1040   2.191       .  S
N1011      C1019   1.352       .  A
N1012      N1013   1.319       .  A
N1012      N1014   1.315       .  A
N1012     Mn1018   2.190       .  S
N1013      C1020   1.352       .  A
N1014      N1015   1.317       .  A
N1014     Mn1040   2.190       .  S
N1015      C1020   1.351       .  A
N1016      N1017   1.317       .  A
N1016     Mn1018   2.195       .  S
N1017      C1019   1.352       .  A
C1019      C1077   1.472       .  S
C1020      C1189   1.469       .  S
N1021      N1022   1.316       .  A
N1021      N1027   1.314       .  A
N1021     Mn1029   2.179       .  S
N1022      C1030   1.350       .  A
N1023      N1025   1.314       .  A
N1023      N1024   1.320       .  A
N1023     Mn1041   2.204       .  S
N1024      C1031   1.353       .  A
N1025      N1026   1.320       .  A
N1025     Mn1029   2.195       .  S
N1026      C1031   1.352       .  A
N1027      N1028   1.320       .  A
N1027     Mn1041   2.197       .  S
N1028      C1030   1.354       .  A
Mn1029    Cl1042   2.533   1_655  S
C1030      C1091   1.472       .  S
C1031      C1175   1.468       .  S
N1032      N1033   1.318       .  A
N1032      N1038   1.313       .  A
N1033      C1043   1.352       .  A
N1034      N1035   1.322       .  A
N1034     Mn1041   2.205       .  S
N1035      C1044   1.355       .  A
N1036      N1037   1.317       .  A
N1036     Mn1040   2.192       .  S
N1038      N1039   1.316       .  A
N1039      C1043   1.350       .  A
Mn1041    Cl1042   2.543   1_655  S
C1043      C1102   1.472       .  S
C1044      C1063   1.483       .  S
C1045      C1050   1.400       .  A
C1045      H1052   1.083       .  S
C1047      C1048   1.393       .  A
C1047      N1054   1.429       .  S
C1048      H1053   1.083       .  S
C1050      N1051   1.429       .  S
N1051      O1055   1.262       .  A
N1051      O1056   1.262       .  A
N1054      O1058   1.262       .  A
N1054      O1057   1.262       .  A
C1059      C1064   1.402       .  A
C1059      H1066   1.084       .  S
C1061      C1062   1.396       .  A
C1061      N1068   1.429       .  S
C1062      H1067   1.084       .  S
C1064      N1065   1.429       .  S
N1065      O1069   1.262       .  A
N1065      O1070   1.262       .  A
N1068      O1072   1.262       .  A
N1068      O1071   1.262       .  A
C1073      C1074   1.405       .  A
C1073      C1078   1.401       .  A
C1073      H1080   1.079       .  S
C1074      C1075   1.414       .  A
C1075      C1076   1.395       .  A
C1075      N1082   1.430       .  S
C1076      C1077   1.400       .  A
C1076      H1081   1.068       .  S
C1077      C1078   1.409       .  A
C1078      N1079   1.429       .  S
N1079      O1083   1.262       .  A
N1079      O1084   1.262       .  A
N1082      O1086   1.262       .  A
N1082      O1085   1.262       .  A
C1087      C1088   1.403       .  A
C1087      C1092   1.394       .  A
C1087      H1094   1.082       .  S
C1088      C1089   1.410       .  A
C1089      C1090   1.399       .  A
C1089      N1096   1.429       .  S
C1090      C1091   1.403       .  A
C1090      H1095   1.083       .  S
C1091      C1092   1.411       .  A
C1092      N1093   1.430       .  S
N1093      O1097   1.262       .  A
N1093      O1098   1.262       .  A
N1096      O1100   1.262       .  A
N1096      O1099   1.262       .  A
C1101      C1102   1.403       .  A
C1101      C1106   1.397       .  A
C1101      H1108   1.083       .  S
C1102      C1103   1.411       .  A
C1103      C1104   1.393       .  A
C1103      N1110   1.432       .  S
C1104      C1105   1.405       .  A
C1104      H1109   1.081       .  S
C1105      C1106   1.416       .  A
C1106      N1107   1.429       .  S
N1107      O1111   1.262       .  A
N1107      O1112   1.262       .  A
N1110      O1114   1.262       .  A
N1110      O1113   1.262       .  A
C1115      C1116   1.403       .  A
C1115      C1120   1.402       .  A
C1115      H1122   1.084       .  S
C1116      C1117   1.416       .  A
C1117      C1118   1.399       .  A
C1117      N1124   1.435       .  S
C1118      C1119   1.401       .  A
C1118      H1123   1.084       .  S
C1119      C1120   1.414       .  A
C1120      N1121   1.431       .  S
N1121      O1125   1.262       .  A
N1121      O1126   1.262       .  A
N1124      O1128   1.262       .  A
N1124      O1127   1.263       .  A
C1129      C1130   1.407       .  A
C1129      C1134   1.403       .  A
C1129      H1136   1.084       .  S
C1130      C1131   1.417       .  A
C1131      C1132   1.400       .  A
C1131      N1138   1.428       .  S
C1132      C1133   1.400       .  A
C1132      H1137   1.084       .  S
C1133      C1134   1.410       .  A
C1134      N1135   1.430       .  S
N1135      O1139   1.262       .  A
N1135      O1140   1.262       .  A
N1138      O1142   1.262       .  A
N1138      O1141   1.262       .  A
C1143      C1144   1.402       .  A
C1143      C1148   1.401       .  A
C1143      H1150   1.083       .  S
C1144      C1145   1.411       .  A
C1145      C1146   1.397       .  A
C1145      N1152   1.430       .  S
C1146      C1147   1.405       .  A
C1146      H1151   1.080       .  S
C1147      C1148   1.418       .  A
C1148      N1149   1.435       .  S
N1149      O1153   1.263       .  A
N1149      O1154   1.262       .  A
N1152      O1156   1.262       .  A
N1152      O1155   1.262       .  A
C1157      C1158   1.404       .  A
C1157      C1162   1.397       .  A
C1157      H1164   1.084       .  S
C1158      C1159   1.416       .  A
C1159      C1160   1.399       .  A
C1159      N1166   1.434       .  S
C1160      C1161   1.401       .  A
C1160      H1165   1.084       .  S
C1161      C1162   1.410       .  A
C1162      N1163   1.429       .  S
N1163      O1167   1.262       .  A
N1163      O1168   1.262       .  A
N1166      O1170   1.262       .  A
N1166      O1169   1.262       .  A
C1171      C1172   1.409       .  A
C1171      C1176   1.402       .  A
C1171      H1178   1.083       .  S
C1172      C1173   1.419       .  A
C1173      C1174   1.397       .  A
C1173      N1180   1.429       .  S
C1174      C1175   1.397       .  A
C1174      H1179   1.084       .  S
C1175      C1176   1.405       .  A
C1176      N1177   1.429       .  S
N1177      O1181   1.262       .  A
N1177      O1182   1.261       .  A
N1180      O1184   1.262       .  A
N1180      O1183   1.262       .  A
C1185      C1186   1.405       .  A
C1185      C1190   1.395       .  A
C1185      H1192   1.083       .  S
C1186      C1187   1.417       .  A
C1187      C1188   1.399       .  A
C1187      N1194   1.433       .  S
C1188      C1189   1.401       .  A
C1188      H1193   1.084       .  S
C1189      C1190   1.408       .  A
C1190      N1191   1.430       .  S
N1191      O1195   1.262       .  A
N1191      O1196   1.262       .  A
N1194      O1198   1.262       .  A
N1194      O1197   1.262       .  A
C1199      C1200   1.406       .  A
C1199      C1204   1.398       .  A
C1199      H1206   1.082       .  S
C1200      C1201   1.414       .  A
C1201      C1202   1.403       .  A
C1201      N1208   1.429   1_556  S
C1202      C1203   1.405       .  A
C1202      H1207   1.084       .  S
C1203      C1204   1.411       .  A
C1204      N1205   1.429       .  S
N1205      O1209   1.262       .  A
N1205      O1210   1.262       .  A
N1208      O1212   1.262   1_554  A
N1208      O1211   1.262       .  A
C1213      C1214   1.404       .  A
C1213      C1218   1.400       .  A
C1213      H1220   1.083       .  S
C1214      C1215   1.411       .  A
C1215      C1216   1.401       .  A
C1215      N1222   1.429   1_556  S
C1216      C1217   1.405       .  A
C1216      H1221   1.083       .  S
C1217      C1218   1.413       .  A
C1218      N1219   1.429       .  S
N1219      O1223   1.262       .  A
N1219      O1224   1.262       .  A
N1222      O1226   1.262       .  A
N1222      O1225   1.262       .  A
C1227      C1228   1.405       .  A
C1227      C1232   1.402       .  A
C1227      H1234   1.083   1_556  S
C1228      C1229   1.414       .  A
C1229      C1230   1.399       .  A
C1229      N1236   1.431       .  S
C1230      C1231   1.403       .  A
C1230      H1235   1.083       .  S
C1231      C1232   1.411       .  A
C1232      N1233   1.429       .  S
N1233      O1237   1.262   1_556  A
N1233      O1238   1.262       .  A
N1236      O1240   1.262       .  A
N1236      O1239   1.262       .  A
