geometry optimzed in LAMMPS
_audit_creation_date              2020-12-01 
_audit_creation_method            'lammps2cif' 
_symmetry_space_group_name_H-M    'P1' 
_symmetry_Int_Tables_number       1 
_symmetry_cell_setting            triclinic 
loop_ 
_symmetry_equiv_pos_as_xyz 
  x,y,z 
_cell_length_a                    23.29505482 
_cell_length_b                    23.312342780429145 
_cell_length_c                    78.03945442298726 
_cell_angle_alpha                 90.02245640849466 
_cell_angle_beta                  90.03445524791452 
_cell_angle_gamma                 89.99442318136761 
loop_ 
_atom_site_label 
_atom_site_type_symbol 
_atom_site_fract_x 
_atom_site_fract_y 
_atom_site_fract_z 
_atom_site_charge 
C1          C  0.66565648  0.10353016  0.44644646     0.89700
C2          C  0.67829877  0.05973624  0.46051477    -0.50600
C3          C  0.65308333  0.07234168  0.47579671     0.12600
C4          C  0.61811560  0.12902286  0.47566211     0.23500
C5          C  0.59996250  0.10719065  0.44562025    -0.51300
C6          C  0.57516765  0.12046090  0.46091913     0.12700
C7          C  0.68495600  0.16143236  0.45355885    -0.50800
C8          C  0.65951782  0.17567769  0.46874414     0.13300
H9          H  0.70262573  0.02064823  0.45834353     0.17800
H10         H  0.59754008  0.13981539  0.48809006     0.03500
H11         H  0.57528579  0.09950877  0.43403953     0.18100
H12         H  0.71204936  0.19092304  0.44641721     0.17900
C13         C  0.66924823  0.41914101  0.44621934     0.89700
C14         C  0.68700590  0.36051618  0.45320451    -0.50600
C15         C  0.66111420  0.34668774  0.46836877     0.12600
C16         C  0.62082911  0.39417808  0.47533402     0.23500
C17         C  0.60341820  0.41714109  0.44534250    -0.51300
C18         C  0.57822674  0.40400123  0.46060628     0.12700
C19         C  0.68282757  0.46221241  0.46038683    -0.50800
C20         C  0.65698218  0.45000264  0.47557551     0.13300
H21         H  0.71354661  0.33055576  0.44605238     0.17800
H22         H  0.59989738  0.38367778  0.48773122     0.03500
H23         H  0.57900414  0.42571762  0.43377135     0.18100
H24         H  0.70772029  0.50098795  0.45829277     0.17900
C25         C  0.31224244  0.42260445  0.44705819     0.89700
C26         C  0.30021745  0.46579146  0.46134324    -0.50600
C27         C  0.32643369  0.45279831  0.47644920     0.12600
C28         C  0.36146336  0.39613955  0.47596769     0.23500
C29         C  0.37793987  0.41924074  0.44594039    -0.51300
C30         C  0.40358286  0.40542134  0.46108566     0.12700
C31         C  0.29361094  0.36426127  0.45403935    -0.50800
C32         C  0.31995607  0.34946011  0.46905349     0.13300
H33         H  0.27598389  0.50505952  0.45938654     0.17800
H34         H  0.38277065  0.38498839  0.48826260     0.03500
H35         H  0.40198656  0.42745162  0.43428615     0.18100
H36         H  0.26621961  0.33495758  0.44691360     0.17900
C37         C  0.30891579  0.10458420  0.44715742     0.89700
C38         C  0.29061127  0.16296045  0.45424037    -0.50600
C39         C  0.31741272  0.17750841  0.46922247     0.12600
C40         C  0.35872959  0.13050945  0.47601456     0.23500
C41         C  0.37463991  0.10768373  0.44596363    -0.51300
C42         C  0.40055437  0.12120990  0.46109003     0.12700
C43         C  0.29692524  0.06130431  0.46139344    -0.50800
C44         C  0.32352990  0.07400727  0.47645669     0.13300
H45         H  0.26346919  0.19255866  0.44715115     0.17800
H46         H  0.38027247  0.14136603  0.48830109     0.03500
H47         H  0.39850540  0.09937891  0.43427816     0.18100
H48         H  0.27270770  0.02204708  0.45940840     0.17900
C49         C  0.83098786  0.58357202  0.29452002     0.89700
C50         C  0.88945148  0.56508416  0.28758452    -0.50600
C51         C  0.90354303  0.59028862  0.27234751     0.12600
C52         C  0.85618154  0.63055214  0.26522083     0.23500
C53         C  0.83345524  0.64931006  0.29515057    -0.51300
C54         C  0.84659466  0.67377220  0.27979820     0.12700
C55         C  0.78766205  0.56970158  0.28042475    -0.50800
C56         C  0.80002134  0.59473708  0.26511434     0.13300
H57         H  0.91928741  0.53873887  0.29485685     0.17800
H58         H  0.86678737  0.65091675  0.25274924     0.03500
H59         H  0.82505413  0.67423061  0.30663217     0.18100
H60         H  0.74877410  0.54506762  0.28262531     0.17900
C61         C  0.14674947  0.58248022  0.29502712     0.89700
C62         C  0.19076961  0.57049826  0.28098180    -0.50600
C63         C  0.17864981  0.59673943  0.26583377     0.12600
C64         C  0.12202648  0.63182828  0.26602696     0.23500
C65         C  0.14337978  0.64812536  0.29618764    -0.51300
C66         C  0.13049628  0.67383321  0.28098885     0.12700
C67         C  0.08878626  0.56390654  0.28771861    -0.50800
C68         C  0.07492976  0.59033272  0.27263943     0.13300
H69         H  0.22983362  0.54604476  0.28311100     0.17800
H70         H  0.11161773  0.65317540  0.25368379     0.03500
H71         H  0.15109522  0.67209000  0.30789556     0.18100
H72         H  0.05901182  0.53657054  0.29466739     0.17900
C73         C  0.82709386  0.93927024  0.29311430     0.89700
C74         C  0.78440930  0.95137359  0.27869258    -0.50600
C75         C  0.79807654  0.92522359  0.26362729     0.12600
C76         C  0.85476401  0.89023889  0.26429588     0.23500
C77         C  0.83040067  0.87363103  0.29420722    -0.51300
C78         C  0.84482363  0.84810446  0.27911146     0.12700
C79         C  0.88574245  0.95796132  0.28634732    -0.50800
C80         C  0.90125618  0.93160442  0.27140403     0.13300
H81         H  0.74494064  0.97540928  0.28053149     0.17800
H82         H  0.86639492  0.86900547  0.25203306     0.03500
H83         H  0.82171569  0.84951638  0.30582081     0.18100
H84         H  0.91484907  0.98509502  0.29363362     0.17900
C85         C  0.14782710  0.94092745  0.29387724     0.89700
C86         C  0.08892888  0.95853236  0.28696072    -0.50600
C87         C  0.07376092  0.93096411  0.27216178     0.12600
C88         C  0.12055646  0.88939537  0.26538081     0.23500
C89         C  0.14508805  0.87532584  0.29542146    -0.51300
C90         C  0.13082678  0.84850995  0.28049491     0.12700
C91         C  0.19031246  0.95222356  0.27935498    -0.50800
C92         C  0.17690704  0.92477190  0.26447725     0.13300
H93         H  0.05969564  0.98630050  0.29396982     0.17800
H94         H  0.10909578  0.86708251  0.25327168     0.03500
H95         H  0.15407418  0.85219177  0.30719384     0.18100
H96         H  0.22954110  0.97680284  0.28101339     0.17900
O97         O  0.70744070  0.54390469  0.40173385    -0.54600
C98         C  0.71787100  0.67766323  0.37700691     0.78000
O99         O  0.70887207  0.55485605  0.34011300    -0.55800
C100        C  0.71113795  0.48997233  0.40099328     0.78000
C101        C  0.57595296  0.53834650  0.36690470     0.80400
Cd102      Cd  0.69622294  0.55883498  0.37106117     1.37500
O103        O  0.75399459  0.64035201  0.38172461    -0.54600
O104        O  0.59524148  0.58303274  0.37401161    -0.53400
C105        C  0.76226133  0.54586425  0.34038073     0.80300
O106        O  0.61210919  0.50250482  0.36127619    -0.55800
O107        O  0.67251134  0.66010017  0.36984814    -0.54300
O108        O  0.71296666  0.46734085  0.38627888    -0.54300
O109        O  0.78557764  0.53903659  0.35486990    -0.53400
O110        O  0.68785988  0.98336873  0.40080221    -0.54600
C111        C  0.71801787  0.84922299  0.37686452     0.78000
O112        O  0.61338285  0.02836966  0.36177690    -0.55800
C113        C  0.70578711  0.03439784  0.40079276     0.78000
C114        C  0.75993903  0.97950077  0.33919243     0.80400
Cd115      Cd  0.69544169  0.96735344  0.37022310     1.37500
O116        O  0.75353527  0.88697039  0.38170377    -0.54600
O117        O  0.78481771  0.98388104  0.35354965    -0.53400
C118        C  0.57681026  0.98879612  0.36379099     0.80300
O119        O  0.70614463  0.97367712  0.33929939    -0.55800
O120        O  0.67305206  0.86619028  0.36940686    -0.54300
O121        O  0.72288133  0.05477721  0.38665309    -0.54300
O122        O  0.59514962  0.94022667  0.36841374    -0.53400
O123        O  0.22905305  0.64288571  0.38147966    -0.54600
C124        C  0.26879757  0.49116565  0.40140673     0.78000
O125        O  0.26870539  0.55545985  0.34014530    -0.55800
C126        C  0.26432402  0.67866068  0.37531203     0.78000
C127        C  0.40317619  0.53764573  0.36721724     0.80400
Cd128      Cd  0.28296484  0.55808976  0.37094510     1.37500
O129        O  0.26771311  0.54530615  0.40166793    -0.54600
O130        O  0.38373976  0.58156232  0.37469686    -0.53400
C131        C  0.21623544  0.54228965  0.34050292     0.80300
O132        O  0.36717108  0.50231997  0.36122400    -0.55800
O133        O  0.27100776  0.46712210  0.38689485    -0.54300
O134        O  0.30715371  0.65884949  0.36736166    -0.54300
O135        O  0.19431527  0.53183320  0.35499624    -0.53400
O136        O  0.22541399  0.88724617  0.37756684    -0.54600
C137        C  0.27018322  0.03677672  0.40114829     0.78000
O138        O  0.36866676  0.03072409  0.36145034    -0.55800
C139        C  0.26587027  0.85168987  0.37550458     0.78000
C140        C  0.21789014  0.98512200  0.33929405     0.80400
Cd141      Cd  0.28482008  0.97175249  0.37007219     1.37500
O142        O  0.27378897  0.98280315  0.40113187    -0.54600
O143        O  0.19423870  0.98910710  0.35382173    -0.53400
C144        C  0.40450339  0.99067543  0.36378424     0.80300
O145        O  0.27174766  0.97985572  0.33907126    -0.55800
O146        O  0.26958707  0.06148318  0.38673775    -0.54300
O147        O  0.31441939  0.87156941  0.37145197    -0.54300
O148        O  0.38513705  0.94285708  0.36869934    -0.53400
C149        C  0.64702860  0.93248082  0.19563891     0.89700
C150        C  0.68981834  0.94691931  0.20985556    -0.50600
C151        C  0.67731784  0.92187077  0.22516466     0.12600
C152        C  0.62156340  0.88553685  0.22495496     0.23500
C153        C  0.64534452  0.86666255  0.19508240    -0.51300
C154        C  0.63204140  0.84224660  0.21045109     0.12700
C155        C  0.58811450  0.95030390  0.20244277    -0.50800
C156        C  0.57399045  0.92525180  0.21770157     0.13300
H157        H  0.72858336  0.97180723  0.20772338     0.17800
H158        H  0.61083705  0.86517762  0.23741854     0.03500
H159        H  0.65432815  0.84169206  0.18365146     0.18100
H160        H  0.55831421  0.97666537  0.19516291     0.17900
C161        C  0.65011823  0.57655820  0.19731191     0.89700
C162        C  0.59094099  0.55869874  0.20391384    -0.50600
C163        C  0.57551374  0.58502449  0.21888132     0.12600
C164        C  0.62235789  0.62572027  0.22611978     0.23500
C165        C  0.64783060  0.64225114  0.19629138    -0.51300
C166        C  0.63332909  0.66784509  0.21136788     0.12700
C167        C  0.69217434  0.56368712  0.21184938    -0.50800
C168        C  0.67852245  0.59000797  0.22689526     0.13300
H169        H  0.56171851  0.53183832  0.19658430     0.17800
H170        H  0.61067709  0.64703826  0.23836664     0.03500
H171        H  0.65722257  0.66636760  0.18472807     0.18100
H172        H  0.73151148  0.53938458  0.21006640     0.17900
C173        C  0.32930186  0.93556022  0.19693416     0.89700
C174        C  0.38750808  0.95463214  0.20394692    -0.50600
C175        C  0.40220244  0.92895131  0.21906880     0.12600
C176        C  0.35531908  0.88788526  0.22609123     0.23500
C177        C  0.33276339  0.86980836  0.19611353    -0.51300
C178        C  0.34629839  0.84498156  0.21140607     0.12700
C179        C  0.28581910  0.94825378  0.21106578    -0.50800
C180        C  0.29854563  0.92280773  0.22629382     0.13300
H181        H  0.41708203  0.98124435  0.19667659     0.17800
H182        H  0.36622032  0.86732732  0.23851565     0.03500
H183        H  0.32465073  0.84515124  0.18456076     0.18100
H184        H  0.24649502  0.97226042  0.20892177     0.17900
C185        C  0.32720877  0.57928224  0.19798438     0.89700
C186        C  0.28556121  0.56708843  0.21263932    -0.50600
C187        C  0.30008442  0.59328150  0.22762379     0.12600
C188        C  0.35677390  0.62818542  0.22666938     0.23500
C189        C  0.33038460  0.64495821  0.19690238    -0.51300
C190        C  0.34585013  0.67044409  0.21192863     0.12700
C191        C  0.38632931  0.56059144  0.20439691    -0.50800
C192        C  0.40275400  0.58673997  0.21928892     0.13300
H193        H  0.24587894  0.54325303  0.21098610     0.17800
H194        H  0.36922270  0.64935302  0.23887514     0.03500
H195        H  0.32076825  0.66911830  0.18536126     0.18100
H196        H  0.41482456  0.53322235  0.19699201     0.17900
O197        O  0.77203912  0.53916595  0.15112061    -0.54600
C198        C  0.90231388  0.53120837  0.12607106     0.78000
O199        O  0.78133964  0.53603584  0.08929764    -0.55800
C200        C  0.71794529  0.53731860  0.15117092     0.78000
C201        C  0.76393774  0.67088602  0.11482256     0.80400
Cd202      Cd  0.78323662  0.55098726  0.12021018     1.37500
O203        O  0.86550517  0.49475023  0.13088291    -0.54600
O204        O  0.80782858  0.65206075  0.12247335    -0.53400
C205        C  0.77079230  0.48302478  0.08962384     0.80300
O206        O  0.72795542  0.63443115  0.10942914    -0.55800
O207        O  0.88415492  0.57597074  0.11874723    -0.54300
O208        O  0.69298444  0.53763300  0.13676356    -0.54300
O209        O  0.76171742  0.46070090  0.10414779    -0.53400
O210        O  0.11006391  0.49004078  0.12909137    -0.54600
C211        C  0.25842907  0.53664448  0.15214806     0.78000
O212        O  0.18542763  0.53290236  0.09062076    -0.55800
C213        C  0.07441665  0.53032903  0.12686233     0.78000
C214        C  0.21453664  0.66918726  0.11548291     0.80400
Cd215      Cd  0.19360650  0.54976685  0.12117587     1.37500
O216        O  0.20440182  0.53295057  0.15195990    -0.54600
O217        O  0.17210108  0.65115155  0.12395895    -0.53400
C218        C  0.20584684  0.48282991  0.09054066     0.80300
O219        O  0.24811051  0.63202827  0.10920544    -0.55800
O220        O  0.28352438  0.54123804  0.13785421    -0.54300
O221        O  0.09390836  0.57860273  0.12241130    -0.54300
O222        O  0.22467379  0.46342655  0.10461297    -0.53400
O223        O  0.25402739  0.87787052  0.11133263    -0.54600
C224        C  0.21116569  0.02771275  0.08932790     0.78000
O225        O  0.11181760  0.01846803  0.12986942    -0.55800
C226        C  0.21564386  0.84182918  0.11529388     0.78000
C227        C  0.26083547  0.97621946  0.15107183     0.80400
Cd228      Cd  0.19587098  0.96210441  0.12009300     1.37500
O229        O  0.20876825  0.97366501  0.08925728    -0.54600
O230        O  0.28442365  0.98428760  0.13667686    -0.53400
C231        C  0.07567247  0.98242351  0.12433196     0.80300
O232        O  0.20759348  0.96642545  0.15111214    -0.55800
O233        O  0.21152425  0.05229209  0.10377713    -0.54300
O234        O  0.16910764  0.86123532  0.12122542    -0.54300
O235        O  0.09496061  0.93798589  0.11709724    -0.53400
O236        O  0.76910582  0.97682026  0.15019415    -0.54600
C237        C  0.90289959  0.98234320  0.12441260     0.78000
O238        O  0.73037859  0.87972042  0.10776242    -0.55800
C239        C  0.71498760  0.97651804  0.14983998     0.78000
C240        C  0.77168128  0.02791859  0.08847105     0.80400
Cd241      Cd  0.78297484  0.96320631  0.11946807     1.37500
O242        O  0.86714712  0.02168959  0.12769460    -0.54600
O243        O  0.76565602  0.05233246  0.10284162    -0.53400
C244        C  0.76392925  0.84343179  0.11449470     0.80300
O245        O  0.77800135  0.97419240  0.08848677    -0.55800
O246        O  0.88326834  0.93488487  0.11926150    -0.54300
O247        O  0.69125526  0.97604667  0.13526017    -0.54300
O248        O  0.80542309  0.86246584  0.12323318    -0.53400
C249        C  0.16713623  0.41287672  0.04484380     0.89700
C250        C  0.18123190  0.45614879  0.03078155    -0.50600
C251        C  0.15638683  0.44389104  0.01542686     0.12600
C252        C  0.12042465  0.38785029  0.01544106     0.23500
C253        C  0.10133069  0.41050111  0.04537297    -0.51300
C254        C  0.07696923  0.39740592  0.02998282     0.12700
C255        C  0.18562982  0.35445182  0.03788733    -0.50800
C256        C  0.16070053  0.34052689  0.02258330     0.13300
H257        H  0.20595231  0.49494467  0.03303149     0.17800
H258        H  0.10018876  0.37730486  0.00293711     0.03500
H259        H  0.07627589  0.41881957  0.05683593     0.18100
H260        H  0.21225407  0.32472385  0.04510805     0.17900
C261        C  0.81112676  0.41366423  0.04386653     0.89700
C262        C  0.79289830  0.35520753  0.03681563    -0.50600
C263        C  0.81905790  0.34101826  0.02171324     0.12600
C264        C  0.86003291  0.38806125  0.01484349     0.23500
C265        C  0.87690430  0.41089586  0.04486313    -0.51300
C266        C  0.90234956  0.39751351  0.02965835     0.12700
C267        C  0.79843376  0.45692973  0.02963130    -0.50800
C268        C  0.82459269  0.44434004  0.01447919     0.13300
H269        H  0.76590659  0.32552181  0.04391256     0.17800
H270        H  0.88121416  0.37724820  0.00250480     0.03500
H271        H  0.90115220  0.41926569  0.05648346     0.18100
H272        H  0.77411470  0.49608639  0.03167885     0.17900
C273        C  0.81492562  0.09618984  0.04275733     0.89700
C274        C  0.80356419  0.05285155  0.02848653    -0.50600
C275        C  0.82932348  0.06643176  0.01337719     0.12600
C276        C  0.86325324  0.12371872  0.01383062     0.23500
C277        C  0.88056632  0.10080986  0.04382996    -0.51300
C278        C  0.90576441  0.11514912  0.02866906     0.12700
C279        C  0.79499518  0.15409556  0.03581326    -0.50800
C280        C  0.82085988  0.16947996  0.02079747     0.13300
H281        H  0.78010395  0.01312151  0.03044337     0.17800
H282        H  0.88412369  0.13529702  0.00151147     0.03500
H283        H  0.90492669  0.09270411  0.05544221     0.18100
H284        H  0.76723456  0.18286452  0.04299809     0.17900
C285        C  0.17094696  0.09570430  0.04330129     0.89700
C286        C  0.19034909  0.15395224  0.03640881    -0.50600
C287        C  0.16462352  0.16907409  0.02131718     0.12600
C288        C  0.12315410  0.12277120  0.01423093     0.23500
C289        C  0.10520494  0.09963023  0.04416720    -0.51300
C290        C  0.08032638  0.11380467  0.02893324     0.12700
C291        C  0.18323061  0.05252951  0.02903857    -0.50800
C292        C  0.15782873  0.06593788  0.01384179     0.13300
H293        H  0.21727642  0.18317393  0.04371664     0.17800
H294        H  0.10251553  0.13415332  0.00185179     0.03500
H295        H  0.08059068  0.09159939  0.05572663     0.18100
H296        H  0.20723461  0.01315136  0.03103404     0.17900
C297        C  0.67246514  0.92008370  0.54334359     0.89700
C298        C  0.68465369  0.96336572  0.52908937    -0.50600
C299        C  0.65791813  0.95083515  0.51401535     0.12600
C300        C  0.62243192  0.89453361  0.51447987     0.23500
C301        C  0.60673609  0.91741917  0.54454995    -0.51300
C302        C  0.58065532  0.90426301  0.52941714     0.12700
C303        C  0.69041814  0.86167089  0.53624681    -0.50800
C304        C  0.66364109  0.84734152  0.52125763     0.13300
H305        H  0.70905421  0.00250361  0.53108069     0.17800
H306        H  0.60078409  0.88379782  0.50220161     0.03500
H307        H  0.58295750  0.92612363  0.55622593     0.18100
H308        H  0.71771755  0.83203162  0.54327052     0.17900
C309        C  0.67512712  0.60194531  0.54279330     0.89700
C310        C  0.69238901  0.66081285  0.53586948    -0.50600
C311        C  0.66500916  0.67550606  0.52100124     0.12600
C312        C  0.62400183  0.62826028  0.51416985     0.23500
C313        C  0.60944230  0.60402164  0.54417875    -0.51300
C314        C  0.58279750  0.61770417  0.52919282     0.12700
C315        C  0.68728791  0.55938711  0.52836613    -0.50800
C316        C  0.66000751  0.57231905  0.51342563     0.13300
H317        H  0.71961720  0.69041038  0.54293863     0.17800
H318        H  0.60188598  0.63928711  0.50199187     0.03500
H319        H  0.58608986  0.59488358  0.55590273     0.18100
H320        H  0.71204360  0.52035228  0.53014583     0.17900
C321        C  0.31471345  0.92286141  0.54394063     0.89700
C322        C  0.29756526  0.86354979  0.53735041    -0.50600
C323        C  0.32358570  0.84865871  0.52230077     0.12600
C324        C  0.36319410  0.89622788  0.51495893     0.23500
C325        C  0.38057138  0.92166655  0.54476684    -0.51300
C326        C  0.40582918  0.90765415  0.52958499     0.12700
C327        C  0.30048715  0.96474305  0.52952759    -0.50800
C328        C  0.32639234  0.95176085  0.51438976     0.13300
H329        H  0.27154603  0.83383303  0.54475806     0.17800
H330        H  0.38414724  0.88501410  0.50261900     0.03500
H331        H  0.40496591  0.93103488  0.55629030     0.18100
H332        H  0.27533036  0.00345288  0.53142952     0.17900
C333        C  0.31693799  0.60216974  0.54457768     0.89700
C334        C  0.30237716  0.56059040  0.53007039    -0.50600
C335        C  0.32820747  0.57364944  0.51491917     0.12600
C336        C  0.36528074  0.62891877  0.51557034     0.23500
C337        C  0.38282382  0.60293017  0.54534633    -0.51300
C338        C  0.40797692  0.61697691  0.53014285     0.12700
C339        C  0.30015375  0.66173869  0.53808556    -0.50800
C340        C  0.32596111  0.67655412  0.52299723     0.13300
H341        H  0.27701010  0.52199021  0.53192046     0.17800
H342        H  0.38622835  0.64020958  0.50323786     0.03500
H343        H  0.40728681  0.59308133  0.55681522     0.18100
H344        H  0.27396740  0.69138844  0.54547211     0.17900
C345        C  0.83559415  0.44038478  0.69627855     0.89700
C346        C  0.89406966  0.45946185  0.70318742    -0.50600
C347        C  0.90904325  0.43362363  0.71828295     0.12600
C348        C  0.86262755  0.39226000  0.72530531     0.23500
C349        C  0.83924868  0.37467733  0.69535350    -0.51300
C350        C  0.85342534  0.34967973  0.71056678     0.12700
C351        C  0.79253595  0.45265668  0.71057469    -0.50800
C352        C  0.80587486  0.42696445  0.72572148     0.13300
H353        H  0.92328273  0.48661914  0.69597317     0.17800
H354        H  0.87397903  0.37142418  0.73765358     0.03500
H355        H  0.83087527  0.35016727  0.68378774     0.18100
H356        H  0.75300950  0.47648270  0.70859260     0.17900
C357        C  0.15474525  0.43780094  0.69720584     0.89700
C358        C  0.19768284  0.45021698  0.71151236    -0.50600
C359        C  0.18407240  0.42475221  0.72666444     0.12600
C360        C  0.12722866  0.39007819  0.72620677     0.23500
C361        C  0.15110241  0.37211744  0.69632032    -0.51300
C362        C  0.13688408  0.34720707  0.71152778     0.12700
C363        C  0.09644253  0.45719937  0.70396642    -0.50800
C364        C  0.08103305  0.43165519  0.71901363     0.13300
H365        H  0.23725006  0.47397118  0.70954854     0.17800
H366        H  0.11566185  0.36947167  0.73856441     0.03500
H367        H  0.15994133  0.34751501  0.68480381     0.18100
H368        H  0.06754047  0.48451183  0.69666785     0.17900
C369        C  0.83734439  0.08506529  0.69608280     0.89700
C370        C  0.79365088  0.07205312  0.71014002    -0.50600
C371        C  0.80613090  0.09727251  0.72543040     0.12600
C372        C  0.86269898  0.13239686  0.72536064     0.23500
C373        C  0.84061291  0.15075331  0.69535923    -0.51300
C374        C  0.85388587  0.17540392  0.71068545     0.12700
C375        C  0.89548384  0.06605638  0.70316321    -0.50800
C376        C  0.90962445  0.09137642  0.71839074     0.13300
H377        H  0.75447151  0.04789969  0.70791877     0.17800
H378        H  0.87337346  0.15289354  0.73781544     0.03500
H379        H  0.83271429  0.17553839  0.68381858     0.18100
H380        H  0.92511471  0.03916896  0.69599468     0.17900
C381        C  0.15548137  0.08151546  0.69737763     0.89700
C382        C  0.09636503  0.06370927  0.70399145    -0.50600
C383        C  0.08126881  0.08970284  0.71903048     0.12600
C384        C  0.12822254  0.13009890  0.72630332     0.23500
C385        C  0.15340515  0.14730693  0.69647680    -0.51300
C386        C  0.13907345  0.17260327  0.71163541     0.12700
C387        C  0.19758035  0.06813121  0.71182999    -0.50800
C388        C  0.18417707  0.09409220  0.72692917     0.13300
H389        H  0.06696291  0.03710382  0.69664218     0.17800
H390        H  0.11674009  0.15108666  0.73861805     0.03500
H391        H  0.16261795  0.17162738  0.68494194     0.18100
H392        H  0.23666690  0.04347345  0.70998420     0.17900
O393        O  0.61708685  0.52381407  0.63033131    -0.54600
C394        C  0.76590273  0.48109644  0.65044703     0.78000
O395        O  0.75834693  0.38561979  0.60981457    -0.55800
C396        C  0.58027072  0.48857007  0.62474162     0.78000
C397        C  0.71528702  0.53433155  0.58869612     0.80400
Cd398      Cd  0.70014633  0.46833199  0.61946324     1.37500
O399        O  0.71251423  0.47229006  0.65050340    -0.54600
O400        O  0.71299870  0.55894473  0.60312362    -0.53400
C401        C  0.72077918  0.34880030  0.61378565     0.80300
O402        O  0.71478339  0.48025515  0.58864484    -0.55800
O403        O  0.78949207  0.48854480  0.63602036    -0.54300
O404        O  0.59868137  0.44501260  0.61683081    -0.54300
O405        O  0.67448346  0.36706627  0.62020761    -0.53400
O406        O  0.72629478  0.04092173  0.58897883    -0.54600
C407        C  0.72229810  0.17643995  0.61284020     0.78000
O408        O  0.61951566  0.00632055  0.63174596    -0.55800
C409        C  0.71600331  0.98776952  0.58912406     0.78000
C410        C  0.76867679  0.04609616  0.65019776     0.80400
Cd411      Cd  0.70291128  0.05728774  0.61925260     1.37500
O412        O  0.76296480  0.14085873  0.61115289    -0.54600
O413        O  0.78810190  0.02565294  0.63633552    -0.53400
C414        C  0.58298870  0.03930091  0.62488226     0.80300
O415        O  0.71917685  0.06784651  0.64978126    -0.55800
O416        O  0.67361739  0.15680589  0.61683669    -0.54300
O417        O  0.70479851  0.96523019  0.60345874    -0.54300
O418        O  0.60182425  0.07995653  0.61580094    -0.53400
O419        O  0.23222519  0.13733922  0.61012938    -0.54600
C420        C  0.27495016  0.99103143  0.58982522     0.78000
O421        O  0.37491126  0.99844977  0.62890263    -0.55800
C422        C  0.26706043  0.17433019  0.61584800     0.78000
C423        C  0.22418026  0.04016758  0.65160054     0.80400
Cd424      Cd  0.28934622  0.05541751  0.62079353     1.37500
O425        O  0.28169447  0.04470874  0.58981120    -0.54600
O426        O  0.19961143  0.03869254  0.63715924    -0.53400
C427        C  0.41002111  0.03813067  0.62536876     0.80300
O428        O  0.27819414  0.04357731  0.65167144    -0.55800
O429        O  0.27061229  0.96656692  0.60423284    -0.54300
O430        O  0.31097294  0.15635005  0.62366632    -0.54300
O431        O  0.38952108  0.08486082  0.61993917    -0.53400
O432        O  0.23166879  0.38289211  0.61039743    -0.54600
C433        C  0.27374614  0.53231094  0.59009296     0.78000
O434        O  0.27620826  0.46822098  0.65147824    -0.55800
C435        C  0.26790513  0.34622722  0.61546674     0.78000
C436        C  0.40786541  0.48752112  0.62551306     0.80400
Cd437      Cd  0.28828034  0.46559543  0.62062045     1.37500
O438        O  0.27831519  0.47840473  0.58975315    -0.54600
O439        O  0.38957094  0.44404951  0.61755025    -0.53400
C440        C  0.22298552  0.47795445  0.65140919     0.80300
O441        O  0.37093511  0.52190795  0.63150109    -0.55800
O442        O  0.27049330  0.55593398  0.60465943    -0.54300
O443        O  0.31300403  0.36464100  0.62257323    -0.54300
O444        O  0.19928501  0.48618594  0.63702557    -0.53400
C445        C  0.65416118  0.08291952  0.79285815     0.89700
C446        C  0.69741578  0.07049379  0.77863850    -0.50600
C447        C  0.68407259  0.09562833  0.76341182     0.12600
C448        C  0.62708460  0.13000032  0.76367921     0.23500
C449        C  0.65005755  0.14863991  0.79361049    -0.51300
C450        C  0.63593508  0.17311718  0.77830841     0.12700
C451        C  0.59597651  0.06324075  0.78595763    -0.50800
C452        C  0.58091893  0.08847916  0.77079837     0.13300
H453        H  0.73704585  0.04691428  0.78072008     0.17800
H454        H  0.61571912  0.15033868  0.75126019     0.03500
H455        H  0.65819811  0.17352964  0.80511647     0.18100
H456        H  0.56684906  0.03619131  0.79324688     0.17900
C457        C  0.33797881  0.08243737  0.79422487     0.89700
C458        C  0.39594561  0.06339028  0.78701218    -0.50600
C459        C  0.40964191  0.08880137  0.77176326     0.12600
C460        C  0.36262209  0.12991702  0.76493610     0.23500
C461        C  0.34134717  0.14813617  0.79498877    -0.51300
C462        C  0.35421099  0.17285182  0.77964602     0.12700
C463        C  0.29394556  0.06954410  0.78023119    -0.50800
C464        C  0.30608308  0.09487049  0.76494673     0.13300
H465        H  0.42573332  0.03639615  0.79408335     0.17800
H466        H  0.37298223  0.15047884  0.75247509     0.03500
H467        H  0.33368914  0.17287025  0.80655492     0.18100
H468        H  0.25478963  0.04540820  0.78249570     0.17900
C469        C  0.33637045  0.43761783  0.79407663     0.89700
C470        C  0.29277069  0.44998051  0.77993698    -0.50600
C471        C  0.30574543  0.42461798  0.76471575     0.12600
C472        C  0.36263105  0.39008458  0.76491550     0.23500
C473        C  0.34025451  0.37194028  0.79489277    -0.51300
C474        C  0.35393772  0.34719231  0.77961100     0.12700
C475        C  0.39443725  0.45710452  0.78706624    -0.50800
C476        C  0.40906560  0.43164697  0.77190166     0.13300
H477        H  0.25326012  0.47368565  0.78206186     0.17800
H478        H  0.37365148  0.36951915  0.75250103     0.03500
H479        H  0.33223255  0.34723753  0.80643820     0.18100
H480        H  0.42368552  0.48439726  0.79424474     0.17900
C481        C  0.65437199  0.43669026  0.79329377     0.89700
C482        C  0.59610952  0.45668414  0.78655413    -0.50600
C483        C  0.58090311  0.43220069  0.77129387     0.12600
C484        C  0.62712768  0.39108774  0.76393246     0.23500
C485        C  0.65040960  0.37100665  0.79374458    -0.51300
C486        C  0.63616539  0.34725436  0.77836738     0.12700
C487        C  0.69753373  0.44992861  0.77912753    -0.50800
C488        C  0.68413411  0.42555352  0.76379253     0.13300
H489        H  0.56703942  0.48329460  0.79401191     0.17800
H490        H  0.61567914  0.37135151  0.75142981     0.03500
H491        H  0.65864214  0.34556762  0.80513602     0.18100
H492        H  0.73716356  0.47339161  0.78131168     0.17900
C493        C  0.81986606  0.59546333  0.94667385     0.89700
C494        C  0.80109350  0.65422200  0.95328342    -0.50600
C495        C  0.82539942  0.66904738  0.96859231     0.12600
C496        C  0.86515570  0.62195924  0.97615266     0.23500
C497        C  0.88573956  0.59777119  0.94642855    -0.51300
C498        C  0.90936181  0.61162365  0.96187367     0.12700
C499        C  0.80503696  0.55285915  0.96086165    -0.50800
C500        C  0.82920039  0.56585373  0.97627235     0.13300
H501        H  0.77519238  0.68371071  0.94574895     0.17800
H502        H  0.88474044  0.63314618  0.98869961     0.03500
H503        H  0.91134686  0.58898778  0.93510801     0.18100
H504        H  0.78052569  0.51391519  0.95865918     0.17900
C505        C  0.81589902  0.91375513  0.94605588     0.89700
C506        C  0.80328857  0.95687148  0.96030009    -0.50600
C507        C  0.82958537  0.94429277  0.97541302     0.12600
C508        C  0.86512076  0.88803252  0.97502566     0.23500
C509        C  0.88172183  0.91116175  0.94500504    -0.51300
C510        C  0.90729989  0.89764278  0.96020480     0.12700
C511        C  0.79789515  0.85522718  0.95305883    -0.50800
C512        C  0.82424421  0.84087542  0.96811421     0.13300
H513        H  0.77882454  0.99596550  0.95829194     0.17800
H514        H  0.88638238  0.87721710  0.98735647     0.03500
H515        H  0.90583015  0.91959805  0.93337742     0.18100
H516        H  0.77091794  0.82555709  0.94593207     0.17900
C517        C  0.17294550  0.91276777  0.94619617     0.89700
C518        C  0.19174783  0.85492845  0.95354806    -0.50600
C519        C  0.16572518  0.84134661  0.96871739     0.12600
C520        C  0.12427178  0.88841280  0.97534625     0.23500
C521        C  0.10726658  0.90934321  0.94520756    -0.51300
C522        C  0.08191393  0.89668725  0.96046284     0.12700
C523        C  0.18522292  0.95700622  0.96021305    -0.50800
C524        C  0.15927110  0.94498369  0.97543920     0.13300
H525        H  0.21908847  0.82511492  0.94660790     0.17800
H526        H  0.10316039  0.87814928  0.98773323     0.03500
H527        H  0.08295946  0.91689628  0.93354718     0.18100
H528        H  0.20941856  0.99612501  0.95799629     0.17900
C529        C  0.17489721  0.59630662  0.94823407     0.89700
C530        C  0.18805285  0.55366257  0.96256436    -0.50600
C531        C  0.16223053  0.56675970  0.97772250     0.12600
C532        C  0.12676800  0.62310402  0.97728561     0.23500
C533        C  0.10908572  0.59902808  0.94741066    -0.51300
C534        C  0.08399062  0.61295746  0.96262068     0.12700
C535        C  0.19335667  0.65497451  0.95502713    -0.50800
C536        C  0.16755609  0.66994858  0.97010935     0.13300
H537        H  0.21205084  0.51428188  0.96055095     0.17800
H538        H  0.10599196  0.63435110  0.98964934     0.03500
H539        H  0.08451716  0.59009626  0.93588369     0.18100
H540        H  0.21996815  0.68439842  0.94770556     0.17900
O541        O  0.21186535  0.03525326  0.90105366    -0.54600
C542        C  0.21901150  0.17120245  0.87655012     0.78000
O543        O  0.21477759  0.04725348  0.83943182    -0.55800
C544        C  0.21334339  0.98123065  0.90036887     0.78000
C545        C  0.07995417  0.03179107  0.86520770     0.80400
Cd546      Cd  0.20004572  0.05162501  0.87037243     1.37500
O547        O  0.25663635  0.13462506  0.88071009    -0.54600
O548        O  0.09874762  0.07625430  0.87257171    -0.53400
C549        C  0.26859032  0.04150715  0.83991866     0.80300
O550        O  0.11656770  0.99622883  0.85966980    -0.55800
O551        O  0.17305799  0.15260046  0.86998539    -0.54300
O552        O  0.21334877  0.95859342  0.88563848    -0.54300
O553        O  0.29146048  0.03613444  0.85452728    -0.53400
O554        O  0.77661373  0.04704942  0.83896911    -0.54600
C555        C  0.90705980  0.02861227  0.86584641     0.78000
O556        O  0.72839916  0.13356171  0.87888924    -0.55800
C557        C  0.72293163  0.03976469  0.83875290     0.78000
C558        C  0.77107967  0.98283492  0.90065984     0.80400
Cd559      Cd  0.78680710  0.04957321  0.87020693     1.37500
O560        O  0.87077884  0.99300489  0.86010088    -0.54600
O561        O  0.76398423  0.95982810  0.88612264    -0.53400
C562        C  0.76805493  0.16928393  0.87591244     0.80300
O563        O  0.77946354  0.03623077  0.90100028    -0.55800
O564        O  0.88783416  0.07238432  0.87343184    -0.54300
O565        O  0.69839211  0.03221905  0.85303443    -0.54300
O566        O  0.81526681  0.14974795  0.87053989    -0.53400
O567        O  0.26276826  0.37867827  0.87743305    -0.54600
C568        C  0.21451876  0.52899343  0.90193542     0.78000
O569        O  0.21639576  0.45749596  0.84008648    -0.55800
C570        C  0.22113280  0.34377657  0.87699914     0.78000
C571        C  0.08287099  0.48115738  0.86394744     0.80400
Cd572      Cd  0.20189885  0.46309604  0.87084114     1.37500
O573        O  0.21893129  0.47505499  0.90175671    -0.54600
O574        O  0.10186131  0.43461807  0.86995024    -0.53400
C575        C  0.26722017  0.47594598  0.83991055     0.80300
O576        O  0.11891696  0.52032173  0.86076409    -0.55800
O577        O  0.20861004  0.55365244  0.88762468    -0.54300
O578        O  0.17174358  0.36415673  0.87429806    -0.54300
O579        O  0.28824662  0.49234968  0.85404044    -0.53400
O580        O  0.87512549  0.52095607  0.86243472    -0.54600
C581        C  0.72455024  0.47433796  0.83917069     0.78000
O582        O  0.73202258  0.37841015  0.87942769    -0.55800
C583        C  0.91054770  0.47995015  0.86338491     0.78000
C584        C  0.78015392  0.52721066  0.90060126     0.80400
Cd585      Cd  0.79127564  0.46071298  0.86980921     1.37500
O586        O  0.77810972  0.46678019  0.83888331    -0.54600
O587        O  0.77533595  0.55103919  0.88611693    -0.53400
C588        C  0.77061560  0.34167660  0.87627946     0.80300
O589        O  0.78580560  0.47340406  0.90079022    -0.55800
O590        O  0.70121783  0.47998539  0.85369237    -0.54300
O591        O  0.89086228  0.43087972  0.86688544    -0.54300
O592        O  0.81808543  0.36001278  0.87073040    -0.53400
C593        C  0.02256560  0.48875416  0.86141343    -0.10100
C594        C  0.97094311  0.48827542  0.86125794    -0.11700
C595        C  0.76132877  0.28136871  0.87831506    -0.10100
C596        C  0.76046127  0.22975191  0.87813142    -0.11700
C597        C  0.22778742  0.23155356  0.87874011    -0.10100
C598        C  0.22877690  0.28317874  0.87887701    -0.11700
C599        C  0.96772550  0.02096352  0.86390182    -0.10100
C600        C  0.01939997  0.02238482  0.86362733    -0.11700
C601        C  0.21177388  0.55985981  0.91784575    -0.10100
C602        C  0.19990086  0.57987267  0.93165973    -0.11700
C603        C  0.16558281  0.78211802  0.97454647    -0.10100
C604        C  0.16605522  0.73009242  0.97502918    -0.11700
C605        C  0.21053889  0.94796408  0.91580867    -0.10100
C606        C  0.19831449  0.92782389  0.92956581    -0.11700
C607        C  0.02045055  0.89371815  0.96218132    -0.10100
C608        C  0.96873597  0.89415104  0.96201096    -0.11700
C609        C  0.78936012  0.92963236  0.92966476    -0.10100
C610        C  0.77495765  0.95006112  0.91614258    -0.11700
C611        C  0.02245354  0.61564068  0.96448361    -0.10100
C612        C  0.97067920  0.61514015  0.96424856    -0.11700
C613        C  0.82587504  0.72906794  0.97368465    -0.10100
C614        C  0.82546520  0.78113608  0.97348255    -0.11700
C615        C  0.79583075  0.57943253  0.92996647    -0.10100
C616        C  0.78347479  0.55932526  0.91622531    -0.11700
C617        C  0.67109576  0.46060506  0.80993413    -0.10100
C618        C  0.69200323  0.47223019  0.82361833    -0.11700
C619        C  0.46873655  0.43177962  0.76647023    -0.10100
C620        C  0.52081400  0.43195764  0.76626293    -0.11700
C621        C  0.29966604  0.47452047  0.82433724    -0.10100
C622        C  0.32019948  0.46261911  0.81062638    -0.11700
C623        C  0.35754205  0.23417857  0.77767382    -0.10100
C624        C  0.35750062  0.28586185  0.77766216    -0.11700
C625        C  0.32248604  0.05748398  0.81084475    -0.10100
C626        C  0.30174558  0.04503015  0.82448930    -0.11700
C627        C  0.52096067  0.08887561  0.76569965    -0.10100
C628        C  0.46893143  0.08893113  0.76602963    -0.11700
C629        C  0.63206450  0.28606144  0.77618120    -0.10100
C630        C  0.63202640  0.23438278  0.77624407    -0.11700
C631        C  0.67087688  0.05779884  0.80938492    -0.10100
C632        C  0.69146033  0.04436282  0.82299276    -0.11700
C633        C  0.25811489  0.23448022  0.61373429    -0.10100
C634        C  0.25866986  0.28600356  0.61359842    -0.11700
C635        C  0.52246655  0.03142590  0.62699608    -0.10100
C636        C  0.47079683  0.03099922  0.62708313    -0.11700
C637        C  0.46826956  0.49673841  0.62735140    -0.10100
C638        C  0.51991054  0.49694123  0.62705955    -0.11700
C639        C  0.72976548  0.28857634  0.61140086    -0.10100
C640        C  0.73043404  0.23697058  0.61100737    -0.11700
C641        C  0.26369389  0.09568104  0.75135020    -0.10100
C642        C  0.22569191  0.09546281  0.74075901    -0.11700
C643        C  0.17217963  0.05577647  0.68096953    -0.10100
C644        C  0.19263749  0.04289874  0.66732508    -0.11700
C645        C  0.76398821  0.09782132  0.73910207    -0.10100
C646        C  0.72596418  0.09729318  0.74968392    -0.11700
C647        C  0.96919826  0.09149173  0.72391367    -0.10100
C648        C  0.02126146  0.09096434  0.72408884    -0.11700
C649        C  0.82174936  0.06013745  0.67946195    -0.10100
C650        C  0.80140387  0.04797880  0.66573478    -0.11700
C651        C  0.26369800  0.42309893  0.75104048    -0.10100
C652        C  0.22569893  0.42310263  0.74045381    -0.11700
C653        C  0.13441278  0.28575548  0.71345201    -0.10100
C654        C  0.13532971  0.23403923  0.71344193    -0.11700
C655        C  0.17117027  0.46302318  0.68075587    -0.10100
C656        C  0.19117664  0.47548472  0.66704684    -0.11700
C657        C  0.76408204  0.42505197  0.73947632    -0.10100
C658        C  0.72607788  0.42462910  0.75006679    -0.11700
C659        C  0.85750142  0.23671720  0.71260372    -0.10100
C660        C  0.85733969  0.28838320  0.71246840    -0.11700
C661        C  0.02092188  0.43183958  0.72396946    -0.10100
C662        C  0.96885962  0.43278519  0.72361096    -0.11700
C663        C  0.81878735  0.46573060  0.67978356    -0.10100
C664        C  0.79803811  0.47826130  0.66611949    -0.11700
C665        C  0.29105978  0.58561978  0.56100250    -0.10100
C666        C  0.27740902  0.56481884  0.57454356    -0.11700
C667        C  0.32659917  0.73636912  0.51765197    -0.10100
C668        C  0.32586334  0.78845615  0.51740155    -0.11700
C669        C  0.28916735  0.93919222  0.56039023    -0.10100
C670        C  0.27687971  0.95953556  0.57409004    -0.11700
C671        C  0.52115778  0.61994795  0.52783683    -0.10100
C672        C  0.46943008  0.61956398  0.52817541    -0.11700
C673        C  0.70168592  0.58573777  0.55913608    -0.10100
C674        C  0.71372765  0.56563436  0.57290086    -0.11700
C675        C  0.51904696  0.90278025  0.52775159    -0.10100
C676        C  0.46730655  0.90406294  0.52778793    -0.11700
C677        C  0.66311213  0.73546465  0.51584834    -0.10100
C678        C  0.66264319  0.78755245  0.51589976    -0.11700
C679        C  0.69881409  0.93581792  0.55977642    -0.10100
C680        C  0.71211985  0.95591985  0.57344791    -0.11700
C681        C  0.15726983  0.02476503  0.99987573    -0.10100
C682        C  0.15785464  0.98727115  0.98910394    -0.11700
C683        C  0.83135936  0.98655115  0.98905111    -0.10100
C684        C  0.83135585  0.02470921  0.99959752    -0.11700
C685        C  0.01896287  0.11841009  0.02705150    -0.10100
C686        C  0.96722539  0.11895323  0.02693897    -0.11700
C687        C  0.82826197  0.52428826  0.99013039    -0.10100
C688        C  0.82675373  0.48651606  0.00080165    -0.11700
C689        C  0.82075513  0.22949846  0.01580264    -0.10100
C690        C  0.82002777  0.28150687  0.01617158    -0.11700
C691        C  0.15928295  0.52426925  0.99127185    -0.10100
C692        C  0.15728784  0.48592002  0.00173071    -0.11700
C693        C  0.16144608  0.28123538  0.01682825    -0.10100
C694        C  0.16284239  0.22922893  0.01645821    -0.11700
C695        C  0.01557301  0.39436331  0.02789616    -0.10100
C696        C  0.96382915  0.39440647  0.02787324    -0.11700
C697        C  0.77577376  0.05941671  0.07277880    -0.10100
C698        C  0.78923297  0.07957255  0.05915642    -0.11700
C699        C  0.20861982  0.05915455  0.07356530    -0.10100
C700        C  0.19616077  0.07926702  0.05982898    -0.11700
C701        C  0.01510446  0.99075788  0.12600822    -0.10100
C702        C  0.96346907  0.99065563  0.12606074    -0.11700
C703        C  0.20405262  0.44941809  0.07513913    -0.10100
C704        C  0.19188152  0.42854042  0.06148588    -0.11700
C705        C  0.22354733  0.72956510  0.11341633    -0.10100
C706        C  0.22385718  0.78122669  0.11344023    -0.11700
C707        C  0.78551089  0.42951591  0.06040619    -0.10100
C708        C  0.77319528  0.45001281  0.07411659    -0.11700
C709        C  0.96245335  0.52261343  0.12848081    -0.10100
C710        C  0.01401296  0.52219644  0.12874766    -0.11700
C711        C  0.75589746  0.73131685  0.11267142    -0.10100
C712        C  0.75591757  0.78293132  0.11256151    -0.11700
C713        C  0.28902555  0.54038010  0.16803638    -0.10100
C714        C  0.30939945  0.55348364  0.18168181    -0.11700
C715        C  0.34955086  0.73190629  0.21357894    -0.10100
C716        C  0.34967028  0.78361272  0.21339405    -0.11700
C717        C  0.29293019  0.97357921  0.16671925    -0.10100
C718        C  0.31332184  0.96083636  0.18039229    -0.11700
C719        C  0.51533565  0.58625097  0.22391824    -0.10100
C720        C  0.46318591  0.58686562  0.22407293    -0.11700
C721        C  0.66696352  0.55108298  0.18085204    -0.10100
C722        C  0.68694714  0.53932870  0.16703698    -0.11700
C723        C  0.46248413  0.92680154  0.22391094    -0.10100
C724        C  0.51456487  0.92565215  0.22342904    -0.11700
C725        C  0.63011711  0.72928633  0.21299358    -0.10100
C726        C  0.62976512  0.78095491  0.21266569    -0.11700
C727        C  0.68281103  0.97162999  0.16542831    -0.10100
C728        C  0.66275603  0.95770250  0.17904844    -0.11700
C729        C  0.25694153  0.73939264  0.37709107    -0.10100
C730        C  0.25753437  0.79105655  0.37717881    -0.11700
C731        C  0.46494378  0.99861937  0.36150678    -0.10100
C732        C  0.51659357  0.99807623  0.36150232    -0.11700
C733        C  0.51538103  0.52941249  0.36552769    -0.10100
C734        C  0.46375002  0.52919334  0.36567745    -0.11700
C735        C  0.72765745  0.78927460  0.37929878    -0.10100
C736        C  0.72742853  0.73772030  0.37929646    -0.11700
C737        C  0.21837077  0.92218485  0.25060680    -0.10100
C738        C  0.25631493  0.92166402  0.23997436    -0.11700
C739        C  0.16466479  0.96814091  0.31010991    -0.10100
C740        C  0.18549017  0.98172282  0.32367726    -0.11700
C741        C  0.71907880  0.92217529  0.23897815    -0.10100
C742        C  0.75665688  0.92313081  0.24972917    -0.11700
C743        C  0.96163886  0.93009036  0.26662855    -0.10100
C744        C  0.01377848  0.92989226  0.26690582    -0.11700
C745        C  0.81056073  0.96484842  0.30955598    -0.10100
C746        C  0.79088622  0.97700155  0.32336024    -0.11700
C747        C  0.25881021  0.59630078  0.24153174    -0.10100
C748        C  0.22086984  0.59746643  0.25215708    -0.11700
C749        C  0.12734916  0.73528129  0.27933117    -0.10100
C750        C  0.12750574  0.78696597  0.27921100    -0.11700
C751        C  0.18301507  0.54379274  0.32508474    -0.10100
C752        C  0.16220366  0.55637767  0.31147141    -0.11700
C753        C  0.75806692  0.59427865  0.25135983    -0.10100
C754        C  0.72020390  0.59271666  0.24070795    -0.11700
C755        C  0.01535664  0.59123664  0.26710522    -0.10100
C756        C  0.96328171  0.59121471  0.26700458    -0.11700
C757        C  0.84875043  0.78672024  0.27749123    -0.10100
C758        C  0.84928871  0.73506002  0.27770139    -0.11700
C759        C  0.81535052  0.55895663  0.31113139    -0.10100
C760        C  0.79474789  0.54745044  0.32484287    -0.11700
C761        C  0.32601424  0.03168488  0.49006842    -0.10100
C762        C  0.32690212  0.99349445  0.50059938    -0.11700
C763        C  0.27133400  0.06813311  0.41694639    -0.10100
C764        C  0.28298100  0.08847736  0.43071345    -0.11700
C765        C  0.32804285  0.49459034  0.49026354    -0.10100
C766        C  0.32850672  0.53225161  0.50099575    -0.11700
C767        C  0.31953168  0.23750720  0.47433473    -0.10100
C768        C  0.32041927  0.28958438  0.47430688    -0.11700
C769        C  0.28611728  0.43880870  0.43064657    -0.10100
C770        C  0.27258902  0.45919603  0.41704257    -0.11700
C771        C  0.65738216  0.53037366  0.49973280    -0.10100
C772        C  0.65647056  0.49218467  0.48921520    -0.11700
C773        C  0.51679125  0.40120421  0.46251739    -0.10100
C774        C  0.46506622  0.40157413  0.46269799    -0.11700
C775        C  0.69504665  0.43499159  0.42977282    -0.10100
C776        C  0.70822344  0.45636468  0.41629797    -0.11700
C777        C  0.65525440  0.99312305  0.50036627    -0.10100
C778        C  0.65360225  0.03083139  0.48967291    -0.11700
C779        C  0.51377041  0.12424110  0.46276925    -0.10100
C780        C  0.46204663  0.12441357  0.46273517    -0.11700
C781        C  0.65935817  0.23529068  0.47411574    -0.10100
C782        C  0.65996090  0.28727778  0.47393100    -0.11700
C783        C  0.69077474  0.08802977  0.42986939    -0.10100
C784        C  0.70324979  0.06763643  0.41619287    -0.11700
loop_ 
_geom_bond_atom_site_label_1 
_geom_bond_atom_site_label_2 
_geom_bond_distance 
_geom_bond_site_symmetry_2 
_ccdc_geom_bond_type 
C1            C2   1.528       .  S
C1            C7   1.527       .  S
C1            C5   1.534       .  S
C1          C783   1.465       .  S
C2            H9   1.086       .  S
C2            C3   1.362       .  D
C3            C4   1.552       .  S
C3          C778   1.453       .  S
C4            C8   1.551       .  S
C4            C6   1.537       .  S
C4           H10   1.111       .  S
C5           H11   1.086       .  S
C5            C6   1.362       .  D
C6          C779   1.440       .  S
C7           H12   1.087       .  S
C7            C8   1.366       .  D
C8          C781   1.451       .  S
C13          C14   1.528       .  S
C13          C19   1.526       .  S
C13          C17   1.536       .  S
C13         C775   1.465       .  S
C14          H21   1.087       .  S
C14          C15   1.367       .  D
C15          C16   1.550       .  S
C15         C782   1.452       .  S
C16          C20   1.550       .  S
C16          C18   1.535       .  S
C16          H22   1.111       .  S
C17          H23   1.086       .  S
C17          C18   1.363       .  D
C18         C773   1.440       .  S
C19          H24   1.086       .  S
C19          C20   1.360       .  D
C20         C772   1.449       .  S
C25          C26   1.528       .  S
C25          C31   1.528       .  S
C25          C29   1.535       .  S
C25         C769   1.467       .  S
C26          H33   1.086       .  S
C26          C27   1.362       .  D
C27          C28   1.553       .  S
C27         C765   1.453       .  S
C28          C32   1.552       .  S
C28          C30   1.536       .  S
C28          H34   1.111       .  S
C29          H35   1.086       .  S
C29          C30   1.363       .  D
C30         C774   1.440       .  S
C31          H36   1.087       .  S
C31          C32   1.367       .  D
C32         C768   1.455       .  S
C37          C38   1.529       .  S
C37          C43   1.527       .  S
C37          C41   1.536       .  S
C37         C764   1.467       .  S
C38          H45   1.087       .  S
C38          C39   1.368       .  D
C39          C40   1.552       .  S
C39         C767   1.455       .  S
C40          C44   1.552       .  S
C40          C42   1.534       .  S
C40          H46   1.111       .  S
C41          H47   1.086       .  S
C41          C42   1.362       .  D
C42         C780   1.440       .  S
C43          H48   1.086       .  S
C43          C44   1.361       .  D
C44         C761   1.451       .  S
C49          C50   1.528       .  S
C49          C55   1.527       .  S
C49          C53   1.534       .  S
C49         C759   1.464       .  S
C50          H57   1.087       .  S
C50          C51   1.367       .  D
C51          C52   1.551       .  S
C51         C756   1.453       .  S
C52          C56   1.552       .  S
C52          C54   1.536       .  S
C52          H58   1.111       .  S
C53          H59   1.086       .  S
C53          C54   1.362       .  D
C54         C758   1.440       .  S
C55          H60   1.086       .  S
C55          C56   1.361       .  D
C56         C753   1.451       .  S
C61          C62   1.527       .  S
C61          C67   1.528       .  S
C61          C65   1.535       .  S
C61         C752   1.465       .  S
C62          H69   1.086       .  S
C62          C63   1.361       .  D
C63          C64   1.552       .  S
C63         C748   1.452       .  S
C64          C68   1.551       .  S
C64          C66   1.536       .  S
C64          H70   1.111       .  S
C65          H71   1.086       .  S
C65          C66   1.362       .  D
C66         C749   1.440       .  S
C67          H72   1.087       .  S
C67          C68   1.367       .  D
C68         C755   1.453       .  S
C73          C74   1.528       .  S
C73          C79   1.529       .  S
C73          C77   1.535       .  S
C73         C745   1.466       .  S
C74          H81   1.086       .  S
C74          C75   1.362       .  D
C75          C76   1.553       .  S
C75         C742   1.452       .  S
C76          C80   1.552       .  S
C76          C78   1.535       .  S
C76          H82   1.111       .  S
C77          H83   1.086       .  S
C77          C78   1.362       .  D
C78         C757   1.439       .  S
C79          H84   1.087       .  S
C79          C80   1.367       .  D
C80         C743   1.456       .  S
C85          C86   1.530       .  S
C85          C91   1.528       .  S
C85          C89   1.535       .  S
C85         C739   1.470       .  S
C86          H93   1.087       .  S
C86          C87   1.368       .  D
C87          C88   1.552       .  S
C87         C744   1.456       .  S
C88          C92   1.552       .  S
C88          C90   1.535       .  S
C88          H94   1.111       .  S
C89          H95   1.086       .  S
C89          C90   1.363       .  D
C90         C750   1.440       .  S
C91          H96   1.086       .  S
C91          C92   1.362       .  D
C92         C737   1.452       .  S
O97         C100   1.262       .  A
O97        Cd102   2.433       .  S
C98         O107   1.263       .  A
C98         O103   1.265       .  A
C98         C736   1.429       .  S
O99         C105   1.261       .  A
O99        Cd102   2.435       .  S
C100        O108   1.264       .  A
C100        C776   1.430       .  S
C101        O106   1.265       .  A
C101        O104   1.263       .  A
C101        C733   1.430       .  S
Cd102       O109   2.479       .  S
Cd102       O108   2.472       .  S
Cd102       O107   2.426       .  S
Cd102       O103   2.472       .  S
Cd102       O106   2.479       .  S
Cd102       O104   2.430       .  S
C105        O109   1.264       .  A
C105        C760   1.430       .  S
O110        C113   1.261   1_565  A
O110       Cd115   2.422       .  S
C111        O120   1.262       .  A
C111        O116   1.265       .  A
C111        C735   1.428       .  S
O112        C118   1.266   1_545  A
O112       Cd115   2.472   1_545  S
C113        O121   1.266       .  A
C113        C784   1.431       .  S
C114        O119   1.261       .  A
C114        O117   1.265       .  A
C114        C746   1.432       .  S
Cd115       O122   2.424       .  S
Cd115       O121   2.491   1_565  S
Cd115       O120   2.416       .  S
Cd115       O116   2.479       .  S
Cd115       O119   2.431       .  S
Cd115       O117   2.486       .  S
C118        O122   1.263       .  A
C118        C732   1.430       .  S
O123        C126   1.266       .  A
O123       Cd128   2.482       .  S
C124        O133   1.264       .  A
C124        O129   1.263       .  A
C124        C770   1.433       .  S
O125        C131   1.261       .  A
O125       Cd128   2.427       .  S
C126        O134   1.263       .  A
C126        C729   1.433       .  S
C127        O132   1.265       .  A
C127        O130   1.262       .  A
C127        C734   1.430       .  S
Cd128       O135   2.487       .  S
Cd128       O134   2.432       .  S
Cd128       O133   2.475       .  S
Cd128       O129   2.442       .  S
Cd128       O132   2.473       .  S
Cd128       O130   2.428       .  S
C131        O135   1.265       .  A
C131        C751   1.431       .  S
O136        C139   1.265       .  A
O136       Cd141   2.478       .  S
C137        O146   1.264       .  A
C137        O142   1.261   1_545  A
C137        C763   1.433       .  S
O138        C144   1.266   1_545  A
O138       Cd141   2.482   1_545  S
C139        O147   1.263       .  A
C139        C730   1.433       .  S
C140        O145   1.261       .  A
C140        O143   1.264       .  A
C140        C740   1.435       .  S
Cd141       O148   2.434       .  S
Cd141       O147   2.437       .  S
Cd141       O146   2.488   1_565  S
Cd141       O142   2.451       .  S
Cd141       O145   2.446       .  S
Cd141       O143   2.494       .  S
C144        O148   1.263       .  A
C144        C731   1.431       .  S
C149        C150   1.528       .  S
C149        C155   1.529       .  S
C149        C153   1.535       .  S
C149        C728   1.469       .  S
C150        H157   1.086       .  S
C150        C151   1.362       .  D
C151        C152   1.551       .  S
C151        C741   1.452       .  S
C152        C156   1.551       .  S
C152        C154   1.536       .  S
C152        H158   1.111       .  S
C153        H159   1.085       .  S
C153        C154   1.364       .  D
C154        C726   1.440       .  S
C155        H160   1.087       .  S
C155        C156   1.367       .  D
C156        C724   1.455       .  S
C161        C162   1.530       .  S
C161        C167   1.528       .  S
C161        C165   1.534       .  S
C161        C721   1.469       .  S
C162        H169   1.087       .  S
C162        C163   1.367       .  D
C163        C164   1.552       .  S
C163        C719   1.456       .  S
C164        C168   1.552       .  S
C164        C166   1.535       .  S
C164        H170   1.111       .  S
C165        H171   1.086       .  S
C165        C166   1.362       .  D
C166        C725   1.440       .  S
C167        H172   1.086       .  S
C167        C168   1.362       .  D
C168        C754   1.452       .  S
C173        C174   1.528       .  S
C173        C179   1.527       .  S
C173        C177   1.536       .  S
C173        C718   1.467       .  S
C174        H181   1.087       .  S
C174        C175   1.367       .  D
C175        C176   1.553       .  S
C175        C723   1.455       .  S
C176        C180   1.553       .  S
C176        C178   1.535       .  S
C176        H182   1.111       .  S
C177        H183   1.086       .  S
C177        C178   1.363       .  D
C178        C716   1.441       .  S
C179        H184   1.086       .  S
C179        C180   1.361       .  D
C180        C738   1.452       .  S
C185        C186   1.527       .  S
C185        C191   1.528       .  S
C185        C189   1.535       .  S
C185        C714   1.467       .  S
C186        H193   1.086       .  S
C186        C187   1.362       .  D
C187        C188   1.553       .  S
C187        C747   1.452       .  S
C188        C192   1.553       .  S
C188        C190   1.536       .  S
C188        H194   1.111       .  S
C189        H195   1.086       .  S
C189        C190   1.363       .  D
C190        C715   1.441       .  S
C191        H196   1.087       .  S
C191        C192   1.367       .  D
C192        C720   1.456       .  S
O197        C200   1.261       .  A
O197       Cd202   2.442       .  S
C198        O207   1.263       .  A
C198        O203   1.265       .  A
C198        C709   1.428       .  S
O199        C205   1.260       .  A
O199       Cd202   2.438       .  S
C200        O208   1.266       .  A
C200        C722   1.434       .  S
C201        O206   1.265       .  A
C201        O204   1.262       .  A
C201        C711   1.431       .  S
Cd202       O209   2.500       .  S
Cd202       O208   2.488       .  S
Cd202       O207   2.425       .  S
Cd202       O203   2.467       .  S
Cd202       O206   2.480       .  S
Cd202       O204   2.431       .  S
C205        O209   1.265       .  A
C205        C708   1.435       .  S
O210        C213   1.266       .  A
O210       Cd215   2.472       .  S
C211        O220   1.264       .  A
C211        O216   1.262       .  A
C211        C713   1.432       .  S
O212        C218   1.260       .  A
O212       Cd215   2.424       .  S
C213        O221   1.262       .  A
C213        C710   1.428       .  S
C214        O219   1.266       .  A
C214        O217   1.262       .  A
C214        C705   1.432       .  S
Cd215       O222   2.499       .  S
Cd215       O221   2.420       .  S
Cd215       O220   2.473       .  S
Cd215       O216   2.447       .  S
Cd215       O219   2.483       .  S
Cd215       O217   2.426       .  S
C218        O222   1.266       .  A
C218        C703   1.433       .  S
O223        C226   1.266       .  A
O223       Cd228   2.482       .  S
C224        O233   1.265       .  A
C224        O229   1.261   1_545  A
C224        C699   1.433       .  S
O225        C231   1.265   1_545  A
O225       Cd228   2.479   1_545  S
C226        O234   1.263       .  A
C226        C706   1.433       .  S
C227        O232   1.261       .  A
C227        O230   1.265       .  A
C227        C717   1.433       .  S
Cd228       O235   2.428       .  S
Cd228       O234   2.434       .  S
Cd228       O233   2.485   1_565  S
Cd228       O229   2.440       .  S
Cd228       O232   2.438       .  S
Cd228       O230   2.489       .  S
C231        O235   1.262       .  A
C231        C701   1.430       .  S
O236        C239   1.261       .  A
O236       Cd241   2.440       .  S
C237        O246   1.263       .  A
C237        O242   1.265   1_565  A
C237        C702   1.430       .  S
O238        C244   1.266       .  A
O238       Cd241   2.474       .  S
C239        O247   1.265       .  A
C239        C727   1.434       .  S
C240        O245   1.261   1_545  A
C240        O243   1.265       .  A
C240        C697   1.431       .  S
Cd241       O248   2.424       .  S
Cd241       O247   2.485       .  S
Cd241       O246   2.428       .  S
Cd241       O242   2.473   1_565  S
Cd241       O245   2.434       .  S
Cd241       O243   2.483   1_565  S
C244        O248   1.263       .  A
C244        C712   1.431       .  S
C249        C250   1.527       .  S
C249        C255   1.528       .  S
C249        C253   1.535       .  S
C249        C704   1.467       .  S
C250        H257   1.086       .  S
C250        C251   1.361       .  D
C251        C252   1.552       .  S
C251        C692   1.450       .  S
C252        C256   1.552       .  S
C252        C254   1.537       .  S
C252        H258   1.111       .  S
C253        H259   1.086       .  S
C253        C254   1.363       .  D
C254        C695   1.441       .  S
C255        H260   1.087       .  S
C255        C256   1.367       .  D
C256        C693   1.453       .  S
C261        C262   1.530       .  S
C261        C267   1.529       .  S
C261        C265   1.536       .  S
C261        C707   1.469       .  S
C262        H269   1.087       .  S
C262        C263   1.368       .  D
C263        C264   1.550       .  S
C263        C690   1.453       .  S
C264        C268   1.550       .  S
C264        C266   1.535       .  S
C264        H270   1.111       .  S
C265        H271   1.086       .  S
C265        C266   1.363       .  D
C266        C696   1.441       .  S
C267        H272   1.086       .  S
C267        C268   1.362       .  D
C268        C688   1.452       .  S
C273        C274   1.526       .  S
C273        C279   1.527       .  S
C273        C277   1.535       .  S
C273        C698   1.465       .  S
C274        H281   1.086       .  S
C274        C275   1.361       .  D
C275        C276   1.552       .  S
C275        C684   1.450   1_554  S
C276        C280   1.552       .  S
C276        C278   1.536       .  S
C276        H282   1.111       .  S
C277        H283   1.086       .  S
C277        C278   1.363       .  D
C278        C686   1.441       .  S
C279        H284   1.087       .  S
C279        C280   1.366       .  D
C280        C689   1.453       .  S
C285        C286   1.529       .  S
C285        C291   1.528       .  S
C285        C289   1.536       .  S
C285        C700   1.468       .  S
C286        H293   1.087       .  S
C286        C287   1.367       .  D
C287        C288   1.550       .  S
C287        C694   1.453       .  S
C288        C292   1.552       .  S
C288        C290   1.535       .  S
C288        H294   1.111       .  S
C289        H295   1.086       .  S
C289        C290   1.363       .  D
C290        C685   1.441       .  S
C291        H296   1.086       .  S
C291        C292   1.362       .  D
C292        C681   1.452   1_554  S
C297        C298   1.529       .  S
C297        C303   1.528       .  S
C297        C301   1.535       .  S
C297        C679   1.468       .  S
C298        H305   1.086   1_565  S
C298        C299   1.362       .  D
C299        C300   1.552       .  S
C299        C777   1.453       .  S
C300        C304   1.553       .  S
C300        C302   1.536       .  S
C300        H306   1.111       .  S
C301        H307   1.086       .  S
C301        C302   1.363       .  D
C302        C675   1.441       .  S
C303        H308   1.087       .  S
C303        C304   1.367       .  D
C304        C678   1.455       .  S
C309        C310   1.529       .  S
C309        C315   1.527       .  S
C309        C313   1.535       .  S
C309        C673   1.467       .  S
C310        H317   1.087       .  S
C310        C311   1.367       .  D
C311        C312   1.552       .  S
C311        C677   1.455       .  S
C312        C316   1.552       .  S
C312        C314   1.536       .  S
C312        H318   1.111       .  S
C313        H319   1.086       .  S
C313        C314   1.362       .  D
C314        C671   1.441       .  S
C315        H320   1.086       .  S
C315        C316   1.361       .  D
C316        C771   1.449       .  S
C321        C322   1.528       .  S
C321        C327   1.526       .  S
C321        C325   1.536       .  S
C321        C669   1.465       .  S
C322        H329   1.087       .  S
C322        C323   1.367       .  D
C323        C324   1.553       .  S
C323        C668   1.455       .  S
C324        C328   1.553       .  S
C324        C326   1.536       .  S
C324        H330   1.111       .  S
C325        H331   1.086       .  S
C325        C326   1.363       .  D
C326        C676   1.441       .  S
C327        H332   1.086   1_565  S
C327        C328   1.361       .  D
C328        C762   1.451       .  S
C333        C334   1.528       .  S
C333        C339   1.529       .  S
C333        C337   1.536       .  S
C333        C665   1.469       .  S
C334        H341   1.086       .  S
C334        C335   1.362       .  D
C335        C336   1.552       .  S
C335        C766   1.453       .  S
C336        C340   1.552       .  S
C336        C338   1.536       .  S
C336        H342   1.111       .  S
C337        H343   1.085       .  S
C337        C338   1.364       .  D
C338        C672   1.441       .  S
C339        H344   1.087       .  S
C339        C340   1.367       .  D
C340        C667   1.456       .  S
C345        C346   1.531       .  S
C345        C351   1.528       .  S
C345        C349   1.536       .  S
C345        C663   1.469       .  S
C346        H353   1.087       .  S
C346        C347   1.368       .  D
C347        C348   1.549       .  S
C347        C662   1.454       .  S
C348        C352   1.550       .  S
C348        C350   1.534       .  S
C348        H354   1.111       .  S
C349        H355   1.086       .  S
C349        C350   1.363       .  D
C350        C660   1.440       .  S
C351        H356   1.086       .  S
C351        C352   1.361       .  D
C352        C657   1.450       .  S
C357        C358   1.526       .  S
C357        C363   1.526       .  S
C357        C361   1.535       .  S
C357        C655   1.463       .  S
C358        H365   1.086       .  S
C358        C359   1.361       .  D
C359        C360   1.552       .  S
C359        C652   1.449       .  S
C360        C364   1.553       .  S
C360        C362   1.537       .  S
C360        H366   1.111       .  S
C361        H367   1.086       .  S
C361        C362   1.363       .  D
C362        C653   1.442       .  S
C363        H368   1.088       .  S
C363        C364   1.365       .  D
C364        C661   1.453       .  S
C369        C370   1.527       .  S
C369        C375   1.528       .  S
C369        C373   1.534       .  S
C369        C649   1.467       .  S
C370        H377   1.086       .  S
C370        C371   1.361       .  D
C371        C372   1.552       .  S
C371        C645   1.450       .  S
C372        C376   1.551       .  S
C372        C374   1.536       .  S
C372        H378   1.111       .  S
C373        H379   1.086       .  S
C373        C374   1.362       .  D
C374        C659   1.440       .  S
C375        H380   1.087       .  S
C375        C376   1.367       .  D
C376        C647   1.453       .  S
C381        C382   1.528       .  S
C381        C387   1.526       .  S
C381        C385   1.536       .  S
C381        C643   1.467       .  S
C382        H389   1.087       .  S
C382        C383   1.367       .  D
C383        C384   1.551       .  S
C383        C648   1.453       .  S
C384        C388   1.551       .  S
C384        C386   1.535       .  S
C384        H390   1.111       .  S
C385        H391   1.086       .  S
C385        C386   1.363       .  D
C386        C654   1.442       .  S
C387        H392   1.086       .  S
C387        C388   1.361       .  D
C388        C642   1.449       .  S
O393        C396   1.265       .  A
O393       Cd398   2.477       .  S
C394        O403   1.265       .  A
C394        O399   1.261       .  A
C394        C664   1.435       .  S
O395        C401   1.265       .  A
O395       Cd398   2.474       .  S
C396        O404   1.263       .  A
C396        C638   1.431       .  S
C397        O402   1.261       .  A
C397        O400   1.265       .  A
C397        C674   1.433       .  S
Cd398       O405   2.436       .  S
Cd398       O404   2.434       .  S
Cd398       O403   2.494       .  S
Cd398       O399   2.441       .  S
Cd398       O402   2.445       .  S
Cd398       O400   2.486       .  S
C401        O405   1.263       .  A
C401        C639   1.432       .  S
O406        C409   1.262   1_545  A
O406       Cd411   2.455       .  S
C407        O416   1.262       .  A
C407        O412   1.266       .  A
C407        C640   1.431       .  S
O408        C414   1.266       .  A
O408       Cd411   2.478       .  S
C409        O417   1.264       .  A
C409        C680   1.434       .  S
C410        O415   1.260       .  A
C410        O413   1.266       .  A
C410        C650   1.433       .  S
Cd411       O418   2.428       .  S
Cd411       O417   2.475   1_545  S
Cd411       O416   2.426       .  S
Cd411       O412   2.481       .  S
Cd411       O415   2.425       .  S
Cd411       O413   2.501       .  S
C414        O418   1.263       .  A
C414        C635   1.431       .  S
O419        C422   1.265       .  A
O419       Cd424   2.472       .  S
C420        O429   1.265       .  A
C420        O425   1.261   1_565  A
C420        C670   1.431       .  S
O421        C427   1.265   1_565  A
O421       Cd424   2.477   1_565  S
C422        O430   1.262       .  A
C422        C633   1.427       .  S
C423        O428   1.261       .  A
C423        O426   1.264       .  A
C423        C644   1.432       .  S
Cd424       O431   2.433       .  S
Cd424       O430   2.417       .  S
Cd424       O429   2.480   1_545  S
Cd424       O425   2.437       .  S
Cd424       O428   2.440       .  S
Cd424       O426   2.481       .  S
C427        O431   1.263       .  A
C427        C636   1.432       .  S
O432        C435   1.265       .  A
O432       Cd437   2.468       .  S
C433        O442   1.265       .  A
C433        O438   1.261       .  A
C433        C666   1.434       .  S
O434        C440   1.260       .  A
O434       Cd437   2.425       .  S
C435        O443   1.263       .  A
C435        C634   1.428       .  S
C436        O441   1.265       .  A
C436        O439   1.263       .  A
C436        C637   1.431       .  S
Cd437       O444   2.484       .  S
Cd437       O443   2.428       .  S
Cd437       O442   2.482       .  S
Cd437       O438   2.438       .  S
Cd437       O441   2.480       .  S
Cd437       O439   2.424       .  S
C440        O444   1.265       .  A
C440        C656   1.429       .  S
C445        C446   1.527       .  S
C445        C451   1.529       .  S
C445        C449   1.536       .  S
C445        C631   1.469       .  S
C446        H453   1.087       .  S
C446        C447   1.361       .  D
C447        C448   1.551       .  S
C447        C646   1.450       .  S
C448        C452   1.550       .  S
C448        C450   1.535       .  S
C448        H454   1.111       .  S
C449        H455   1.085       .  S
C449        C450   1.364       .  D
C450        C630   1.440       .  S
C451        H456   1.087       .  S
C451        C452   1.367       .  D
C452        C627   1.452       .  S
C457        C458   1.529       .  S
C457        C463   1.528       .  S
C457        C461   1.535       .  S
C457        C625   1.467       .  S
C458        H465   1.087       .  S
C458        C459   1.367       .  D
C459        C460   1.550       .  S
C459        C628   1.452       .  S
C460        C464   1.550       .  S
C460        C462   1.535       .  S
C460        H466   1.111       .  S
C461        H467   1.086       .  S
C461        C462   1.363       .  D
C462        C623   1.440       .  S
C463        H468   1.086       .  S
C463        C464   1.361       .  D
C464        C641   1.449       .  S
C469        C470   1.527       .  S
C469        C475   1.529       .  S
C469        C473   1.535       .  S
C469        C622   1.466       .  S
C470        H477   1.086       .  S
C470        C471   1.361       .  D
C471        C472   1.551       .  S
C471        C651   1.449       .  S
C472        C476   1.551       .  S
C472        C474   1.535       .  S
C472        H478   1.111       .  S
C473        H479   1.086       .  S
C473        C474   1.363       .  D
C474        C624   1.440       .  S
C475        H480   1.087       .  S
C475        C476   1.367       .  D
C476        C619   1.453       .  S
C481        C482   1.528       .  S
C481        C487   1.526       .  S
C481        C485   1.534       .  S
C481        C617   1.466       .  S
C482        H489   1.087       .  S
C482        C483   1.367       .  D
C483        C484   1.552       .  S
C483        C620   1.454       .  S
C484        C488   1.552       .  S
C484        C486   1.536       .  S
C484        H490   1.111       .  S
C485        H491   1.086       .  S
C485        C486   1.362       .  D
C486        C629   1.440       .  S
C487        H492   1.086       .  S
C487        C488   1.361       .  D
C488        C658   1.450       .  S
C493        C494   1.527       .  S
C493        C499   1.527       .  S
C493        C497   1.536       .  S
C493        C615   1.467       .  S
C494        H501   1.087       .  S
C494        C495   1.366       .  D
C495        C496   1.553       .  S
C495        C613   1.454       .  S
C496        C500   1.553       .  S
C496        C498   1.537       .  S
C496        H502   1.111       .  S
C497        H503   1.086       .  S
C497        C498   1.363       .  D
C498        C612   1.443       .  S
C499        H504   1.086       .  S
C499        C500   1.362       .  D
C500        C687   1.453       .  S
C505        C506   1.527       .  S
C505        C511   1.529       .  S
C505        C509   1.537       .  S
C505        C609   1.468       .  S
C506        H513   1.086       .  S
C506        C507   1.361       .  D
C507        C508   1.551       .  S
C507        C683   1.451       .  S
C508        C512   1.551       .  S
C508        C510   1.535       .  S
C508        H514   1.111       .  S
C509        H515   1.085       .  S
C509        C510   1.364       .  D
C510        C608   1.440       .  S
C511        H516   1.087       .  S
C511        C512   1.367       .  D
C512        C614   1.455       .  S
C517        C518   1.529       .  S
C517        C523   1.530       .  S
C517        C521   1.534       .  S
C517        C606   1.469       .  S
C518        H525   1.087       .  S
C518        C519   1.368       .  D
C519        C520   1.550       .  S
C519        C603   1.454       .  S
C520        C524   1.551       .  S
C520        C522   1.536       .  S
C520        H526   1.111       .  S
C521        H527   1.086       .  S
C521        C522   1.362       .  D
C522        C607   1.440       .  S
C523        H528   1.086       .  S
C523        C524   1.363       .  D
C524        C682   1.452       .  S
C529        C530   1.528       .  S
C529        C535   1.528       .  S
C529        C533   1.536       .  S
C529        C602   1.470       .  S
C530        H537   1.086       .  S
C530        C531   1.362       .  D
C531        C532   1.552       .  S
C531        C691   1.451       .  S
C532        C536   1.553       .  S
C532        C534   1.535       .  S
C532        H538   1.111       .  S
C533        H539   1.086       .  S
C533        C534   1.363       .  D
C534        C611   1.442       .  S
C535        H540   1.087       .  S
C535        C536   1.367       .  D
C536        C604   1.454       .  S
O541        C544   1.261   1_545  A
O541       Cd546   2.440       .  S
C542        O551   1.263       .  A
C542        O547   1.265       .  A
C542        C597   1.432       .  S
O543        C549   1.261       .  A
O543       Cd546   2.441       .  S
C544        O552   1.265       .  A
C544        C605   1.435       .  S
C545        O550   1.266   1_545  A
C545        O548   1.263       .  A
C545        C600   1.433       .  S
Cd546       O553   2.489       .  S
Cd546       O552   2.494   1_545  S
Cd546       O551   2.437       .  S
Cd546       O547   2.476       .  S
Cd546       O550   2.479   1_545  S
Cd546       O548   2.435       .  S
C549        O553   1.264       .  A
C549        C626   1.433       .  S
O554        C557   1.262       .  A
O554       Cd559   2.450       .  S
C555        O564   1.262       .  A
C555        O560   1.266   1_545  A
C555        C599   1.433       .  S
O556        C562   1.265       .  A
O556       Cd559   2.479       .  S
C557        O565   1.265       .  A
C557        C632   1.435       .  S
C558        O563   1.260   1_565  A
C558        O561   1.265       .  A
C558        C610   1.433       .  S
Cd559       O566   2.428       .  S
Cd559       O565   2.490       .  S
Cd559       O564   2.426       .  S
Cd559       O560   2.488   1_545  S
Cd559       O563   2.429       .  S
Cd559       O561   2.491   1_545  S
C562        O566   1.262       .  A
C562        C596   1.431       .  S
O567        C570   1.266       .  A
O567       Cd572   2.479       .  S
C568        O577   1.264       .  A
C568        O573   1.262       .  A
C568        C601   1.436       .  S
O569        C575   1.260       .  A
O569       Cd572   2.427       .  S
C570        O578   1.262       .  A
C570        C598   1.431       .  S
C571        O576   1.265       .  A
C571        O574   1.262       .  A
C571        C593   1.430       .  S
Cd572       O579   2.497       .  S
Cd572       O578   2.426       .  S
Cd572       O577   2.489       .  S
Cd572       O573   2.461       .  S
Cd572       O576   2.477       .  S
Cd572       O574   2.424       .  S
C575        O579   1.265       .  A
C575        C621   1.432       .  S
O580        C583   1.265       .  A
O580       Cd585   2.474       .  S
C581        O590   1.264       .  A
C581        O586   1.260       .  A
C581        C618   1.431       .  S
O582        C588   1.266       .  A
O582       Cd585   2.480       .  S
C583        O591   1.263       .  A
C583        C594   1.430       .  S
C584        O589   1.261       .  A
C584        O587   1.265       .  A
C584        C616   1.433       .  S
Cd585       O592   2.430       .  S
Cd585       O591   2.433       .  S
Cd585       O590   2.486       .  S
Cd585       O586   2.437       .  S
Cd585       O589   2.439       .  S
Cd585       O587   2.488       .  S
C588        O592   1.262       .  A
C588        C595   1.431       .  S
C593        C594   1.203   1_455  T
C595        C596   1.204       .  T
C597        C598   1.204       .  T
C599        C600   1.204   1_655  T
C601        C602   1.207       .  T
C603        C604   1.213       .  T
C605        C606   1.206       .  T
C607        C608   1.205   1_455  T
C609        C610   1.205       .  T
C611        C612   1.206   1_455  T
C613        C614   1.214       .  T
C615        C616   1.205       .  T
C617        C618   1.204       .  T
C619        C620   1.213       .  T
C621        C622   1.205       .  T
C623        C624   1.205       .  T
C625        C626   1.205       .  T
C627        C628   1.212       .  T
C629        C630   1.205       .  T
C631        C632   1.206       .  T
C633        C634   1.201       .  T
C635        C636   1.204       .  T
C637        C638   1.203       .  T
C639        C640   1.204       .  T
C641        C642   1.211       .  T
C643        C644   1.205       .  T
C645        C646   1.211       .  T
C647        C648   1.213   1_655  T
C649        C650   1.205       .  T
C651        C652   1.210       .  T
C653        C654   1.206       .  T
C655        C656   1.203       .  T
C657        C658   1.212       .  T
C659        C660   1.205       .  T
C661        C662   1.213   1_455  T
C663        C664   1.206       .  T
C665        C666   1.206       .  T
C667        C668   1.215       .  T
C669        C670   1.204       .  T
C671        C672   1.205       .  T
C673        C674   1.205       .  T
C675        C676   1.206       .  T
C677        C678   1.214       .  T
C679        C680   1.205       .  T
C681        C682   1.213   1_545  T
C683        C684   1.212   1_565  T
C685        C686   1.205   1_455  T
C687        C688   1.213   1_556  T
C689        C690   1.213       .  T
C691        C692   1.212   1_556  T
C693        C694   1.213       .  T
C695        C696   1.205   1_455  T
C697        C698   1.204       .  T
C699        C700   1.205       .  T
C701        C702   1.203   1_455  T
C703        C704   1.205       .  T
C705        C706   1.204       .  T
C707        C708   1.206       .  T
C709        C710   1.201   1_655  T
C711        C712   1.203       .  T
C713        C714   1.205       .  T
C715        C716   1.205       .  T
C717        C718   1.205       .  T
C719        C720   1.215       .  T
C721        C722   1.206       .  T
C723        C724   1.214       .  T
C725        C726   1.205       .  T
C727        C728   1.206       .  T
C729        C730   1.205       .  T
C731        C732   1.203       .  T
C733        C734   1.203       .  T
C735        C736   1.202       .  T
C737        C738   1.213       .  T
C739        C740   1.207       .  T
C741        C742   1.212       .  T
C743        C744   1.215   1_655  T
C745        C746   1.205       .  T
C747        C748   1.213       .  T
C749        C750   1.205       .  T
C751        C752   1.204       .  T
C753        C754   1.212       .  T
C755        C756   1.213   1_455  T
C757        C758   1.205       .  T
C759        C760   1.203       .  T
C761        C762   1.212   1_545  T
C763        C764   1.205       .  T
C765        C766   1.213       .  T
C767        C768   1.214       .  T
C769        C770   1.205       .  T
C771        C772   1.211       .  T
C773        C774   1.205       .  T
C775        C776   1.204       .  T
C777        C778   1.213   1_565  T
C779        C780   1.205       .  T
C781        C782   1.212       .  T
C783        C784   1.204       .  T
