geometry optimzed in LAMMPS
_audit_creation_date              2020-11-30 
_audit_creation_method            'lammps2cif' 
_symmetry_space_group_name_H-M    'P1' 
_symmetry_Int_Tables_number       1 
_symmetry_cell_setting            triclinic 
loop_ 
_symmetry_equiv_pos_as_xyz 
  x,y,z 
_cell_length_a                    33.754617113526194 
_cell_length_b                    33.84269590333701 
_cell_length_c                    26.28719151185734 
_cell_angle_alpha                 86.0311201365837 
_cell_angle_beta                  98.1112491476827 
_cell_angle_gamma                 123.39769317960895 
loop_ 
_atom_site_label 
_atom_site_type_symbol 
_atom_site_fract_x 
_atom_site_fract_y 
_atom_site_fract_z 
_atom_site_charge 
O1          O  0.41660660  0.24014383  0.13333789    -0.82320
O2          O  0.39488936  0.22215671  0.89420374    -0.67010
O3          O  0.37015039  0.19974192  0.03638397    -1.13610
C4          C  0.48907158  0.16363745  0.04479780     1.04570
O5          O  0.38413321  0.15217109  0.89527869    -0.80220
O6          O  0.38583241  0.09811194  0.97180888    -0.67800
Ni7        Ni  0.37843077  0.24838747  0.07801663     1.34870
C8          C  0.35819343  0.08537790  0.00592696     0.83300
O9          O  0.33709822  0.23290402  0.94905429    -0.80760
O10         O  0.34023156  0.26014215  0.02652776    -0.91030
C11         C  0.39169452  0.18854055  0.87044725     0.82880
O12         O  0.43678319  0.29974461  0.05640518    -0.69230
O13         O  0.48145416  0.16089818  0.99587995    -0.88520
C14         C  0.45408526  0.30886728  0.01422259     0.83710
C15         C  0.32504534  0.25216646  0.97874193     1.05270
H16         H  0.45988592  0.22640022  0.99046015     0.37080
O17         O  0.42836584  0.19761819  0.98775473    -1.11180
O18         O  0.36351992  0.11394703  0.03982074    -0.67830
Ni19       Ni  0.41403384  0.18040593  0.05656639     1.26350
O20         O  0.43411597  0.28011692  0.97618153    -0.68060
O21         O  0.46248225  0.16572262  0.07358265    -0.80350
C22         C  0.40448103  0.20086030  0.15423156     0.83090
O23         O  0.39843002  0.16761987  0.12702607    -0.67530
Ni24       Ni  0.43266590  0.15709777  0.94628418     1.27450
Ni25       Ni  0.38259173  0.21425650  0.96585927     1.26060
H26         H  0.33776637  0.17269491  0.03681075     0.37630
O27         O  0.43743158  0.23849802  0.63382208    -0.82320
O28         O  0.38851206  0.21860256  0.40050450    -0.67010
O29         O  0.37939085  0.19479894  0.54585725    -1.13610
C30         C  0.49864872  0.16232256  0.53051463     1.04570
O31         O  0.37933128  0.14958612  0.39613921    -0.80220
O32         O  0.38723862  0.09565660  0.46831697    -0.67800
Ni33       Ni  0.38855452  0.24108069  0.59165358     1.34870
C34         C  0.36498638  0.08340626  0.50727918     0.83300
O35         O  0.33667751  0.22707674  0.46871215    -0.80760
O36         O  0.33993284  0.24557267  0.55110971    -0.91030
C37         C  0.38405289  0.18590122  0.37354604     0.82880
O38         O  0.43822602  0.29672529  0.56265503    -0.69230
O39         O  0.48447054  0.15745585  0.48237241    -0.88520
C40         C  0.45417228  0.30547537  0.51970668     0.83710
C41         C  0.32313008  0.24053908  0.50376054     1.05270
H42         H  0.46289075  0.22386463  0.48562380     0.37080
O43         O  0.43193662  0.19471848  0.48632299    -1.11180
O44         O  0.37601848  0.11177433  0.54417820    -0.67830
Ni45       Ni  0.42645722  0.17847562  0.55713523     1.26350
O46         O  0.43498974  0.27534823  0.48312353    -0.68060
O47         O  0.47698193  0.16624997  0.56443073    -0.80350
C48         C  0.42606003  0.20037661  0.65666179     0.83090
O49         O  0.41941965  0.16653070  0.63020563    -0.67530
Ni50       Ni  0.43175039  0.15420949  0.44014773     1.27450
Ni51       Ni  0.38379419  0.20970267  0.47439120     1.26060
H52         H  0.34814321  0.16665385  0.54889022     0.37630
O53         O  0.22838555  0.74775999  0.10723471    -0.82320
O54         O  0.24102443  0.77193532  0.87250071    -0.67010
O55         O  0.25981124  0.79727570  0.01632231    -1.13610
C56         C  0.10655731  0.77463734  0.97620643     1.04570
O57         O  0.22406666  0.82608788  0.85760635    -0.80220
O58         O  0.20873268  0.86823630  0.92930942    -0.67800
Ni59       Ni  0.27811341  0.76445330  0.06570975     1.34870
C60         C  0.22900596  0.88298107  0.97470372     0.83300
O61         O  0.31445916  0.79517822  0.94691041    -0.80760
O62         O  0.33045936  0.78032932  0.02941938    -0.91030
C63         C  0.23160951  0.79670039  0.84095299     0.82880
O64         O  0.23997660  0.70272501  0.03463470    -0.69230
O65         O  0.11766031  0.78741433  0.93078414    -0.88520
C66         C  0.22289083  0.68814328  0.98854934     0.83710
C67         C  0.34169001  0.79234093  0.98388752     1.05270
H68         H  0.16617809  0.74019398  0.94066086     0.37080
O69         O  0.19042122  0.77351169  0.94586196    -1.11180
O70         O  0.22722214  0.85509578  0.01058160    -0.67830
Ni71       Ni  0.19842492  0.78759161  0.01695349     1.26350
O72         O  0.22473449  0.71577684  0.95198844    -0.68060
O73         O  0.13560565  0.77588858  0.01407499    -0.80350
C74         C  0.21964902  0.77694948  0.12192917     0.83090
O75         O  0.20898007  0.79993623  0.08907810    -0.67530
Ni76       Ni  0.17227320  0.80687750  0.89674643     1.27450
Ni77       Ni  0.25179273  0.78340006  0.94500273     1.26060
H78         H  0.28421320  0.83055695  0.02145111     0.37630
O79         O  0.22617221  0.74498217  0.60456340    -0.82320
O80         O  0.24666514  0.78504435  0.37194084    -0.67010
O81         O  0.25925477  0.80021499  0.51684616    -1.13610
C82         C  0.10394134  0.77311030  0.47734483     1.04570
O83         O  0.22102971  0.83249843  0.35575670    -0.80220
O84         O  0.20622250  0.87024222  0.43245651    -0.67800
Ni85       Ni  0.27590446  0.76355490  0.56222630     1.34870
C86         C  0.22637289  0.88357709  0.47819819     0.83300
O87         O  0.31860618  0.80832942  0.44756029    -0.80760
O88         O  0.32882419  0.78111176  0.52560034    -0.91030
C89         C  0.23346817  0.80664866  0.34005810     0.82880
O90         O  0.23572745  0.70410640  0.52625707    -0.69230
O91         O  0.11534558  0.78813776  0.43252220    -0.88520
C92         C  0.22392962  0.69475924  0.47845187     0.83710
C93         C  0.34335853  0.80017323  0.48271979     1.05270
H94         H  0.16834807  0.74409599  0.43781130     0.37080
O95         O  0.19087531  0.77752413  0.44471192    -1.11180
O96         O  0.22385625  0.85477723  0.51326226    -0.67830
Ni97       Ni  0.19672396  0.78762327  0.51686641     1.26350
O98         O  0.23112105  0.72614633  0.44493565    -0.68060
O99         O  0.13300026  0.77337938  0.51439254    -0.80350
C100        C  0.21658921  0.77288210  0.62104484     0.83090
O101        O  0.20571443  0.79664755  0.58963350    -0.67530
Ni102      Ni  0.17004436  0.81021487  0.39743899     1.27450
Ni103      Ni  0.25444526  0.79245606  0.44456427     1.26060
H104        H  0.28297477  0.83309907  0.52548083     0.37630
O105        O  0.79812665  0.56046882  0.12726782    -0.82320
O106        O  0.80710827  0.57853875  0.89469604    -0.67010
O107        O  0.80358199  0.60379120  0.03414193    -1.13610
C108        C  0.63799100  0.48219403  0.99224480     1.04570
O109        O  0.74869529  0.58945060  0.87571334    -0.80220
O110        O  0.69244723  0.58935943  0.93401040    -0.67800
Ni111      Ni  0.84777345  0.60696772  0.08949657     1.34870
C112        C  0.70591483  0.61258259  0.97540997     0.83300
O113        O  0.87607457  0.63987340  0.96931284    -0.80760
O114        O  0.90029371  0.65269473  0.05438380    -0.91030
C115        C  0.77848986  0.58268071  0.86092152     0.82880
O116        O  0.85111577  0.55689702  0.06868013    -0.69230
O117        O  0.64606105  0.49354502  0.94571308    -0.88520
C118        C  0.83586551  0.53245236  0.02798956     0.83710
C119        C  0.90829822  0.66134664  0.00762847     1.05270
H120        H  0.73743122  0.51285956  0.96708299     0.37080
O121        O  0.74182278  0.54358594  0.96702808    -1.11180
O122        O  0.72267174  0.60217529  0.01668572    -0.67830
Ni123      Ni  0.73688018  0.55491808  0.03515785     1.26350
O124        O  0.82110044  0.54330758  0.98555478    -0.68060
O125        O  0.66925081  0.50446406  0.03126129    -0.80350
C126        C  0.76694776  0.56571652  0.14089898     0.83090
O127        O  0.73733468  0.56754254  0.10644349    -0.67530
Ni128      Ni  0.69838141  0.54138527  0.91170296     1.27450
Ni129      Ni  0.80840221  0.59156369  0.96603397     1.26060
H130        H  0.80747841  0.63431418  0.03355881     0.37630
O131        O  0.79419834  0.55271623  0.62595994    -0.82320
O132        O  0.80302719  0.57965834  0.39381348    -0.67010
O133        O  0.80058698  0.60018089  0.53512564    -1.13610
C134        C  0.63518191  0.47924609  0.49280775     1.04570
O135        O  0.74373161  0.58962857  0.37619890    -0.80220
O136        O  0.68631221  0.58620462  0.43741963    -0.67800
Ni137      Ni  0.84435133  0.59973703  0.58888799     1.34870
C138        C  0.69783090  0.60736174  0.48000460     0.83300
O139        O  0.87259800  0.63825016  0.46947994    -0.80760
O140        O  0.89731076  0.64607787  0.55459559    -0.91030
C141        C  0.77414357  0.58403202  0.36073242     0.82880
O142        O  0.84618382  0.54964726  0.56437619    -0.69230
O143        O  0.64277617  0.49092238  0.44620353    -0.88520
C144        C  0.83211035  0.52787281  0.52191066     0.83710
C145        C  0.90515462  0.65733315  0.50806271     1.05270
H146        H  0.73390162  0.51150320  0.46569393     0.37080
O147        O  0.73825082  0.54215482  0.46667707    -1.11180
O148        O  0.71776551  0.59845239  0.51991894    -0.67830
Ni149      Ni  0.73378261  0.55176295  0.53565775     1.26350
O150        O  0.81734868  0.54084621  0.48107652    -0.68060
O151        O  0.66644232  0.50140885  0.53177450    -0.80350
C152        C  0.76428757  0.55915089  0.64102226     0.83090
O153        O  0.73507232  0.56268380  0.60764172    -0.67530
Ni154      Ni  0.69425344  0.54033524  0.41236053     1.27450
Ni155      Ni  0.80483069  0.59006140  0.46590845     1.26060
H156        H  0.80490067  0.63079036  0.53660511     0.37630
O157        O  0.55696590  0.80223180  0.83545178    -0.82320
O158        O  0.59237017  0.81573605  0.07422728    -0.67010
O159        O  0.60990514  0.81625893  0.93219198    -1.13610
C160        C  0.50756402  0.65005005  0.94992823     1.04570
O161        O  0.60726465  0.76070080  0.08963593    -0.80220
O162        O  0.61548258  0.71419635  0.02026020    -0.67800
Ni163      Ni  0.59661718  0.85340713  0.88342814     1.34870
C164        C  0.63429310  0.72590709  0.97899109     0.83300
O165        O  0.64588471  0.88537572  0.00837229    -0.80760
O166        O  0.63655635  0.90761632  0.92685925    -0.91030
C167        C  0.59724913  0.78802856  0.10581514     0.82880
O168        O  0.53948732  0.84061787  0.90685564    -0.69230
O169        O  0.51988251  0.65775462  0.99815833    -0.88520
C170        C  0.52571706  0.83083448  0.95106888     0.83710
C171        C  0.65503176  0.91668631  0.97368711     1.05270
H172        H  0.52561486  0.74379418  0.99127341     0.37080
O173        O  0.55781873  0.75141795  0.99229678    -1.11180
O174        O  0.62037733  0.74160697  0.93993886    -0.67830
Ni175      Ni  0.56770879  0.74943966  0.92267267     1.26350
O176        O  0.54926869  0.82541627  0.98968224    -0.68060
O177        O  0.52375147  0.68210720  0.91577740    -0.80350
C178        C  0.57065771  0.77765241  0.81978162     0.83090
O179        O  0.57909388  0.75244745  0.85188989    -0.67530
Ni180      Ni  0.56312024  0.71067585  0.04220390     1.27450
Ni181      Ni  0.60195519  0.81814881  0.00268482     1.26060
H182        H  0.64240848  0.82553681  0.93070251     0.37630
O183        O  0.55018286  0.79920471  0.33375534    -0.82320
O184        O  0.59284818  0.81759833  0.57254294    -0.67010
O185        O  0.60271292  0.81180154  0.42930040    -1.13610
C186        C  0.47532244  0.65297489  0.44844057     1.04570
O187        O  0.59279218  0.75282495  0.58440938    -0.80220
O188        O  0.57747269  0.69011820  0.51599576    -0.67800
Ni189      Ni  0.59233943  0.85063836  0.38082887     1.34870
C190        C  0.60408300  0.70503433  0.48049301     0.83300
O191        O  0.64928006  0.88279490  0.50387853    -0.80760
O192        O  0.63488474  0.90502840  0.42396077    -0.91030
C193        C  0.59320390  0.78662271  0.60285992     0.82880
O194        O  0.53665438  0.84013543  0.40517901    -0.69230
O195        O  0.48376141  0.66084108  0.49678052    -0.88520
C196        C  0.52663017  0.83701824  0.45051214     0.83710
C197        C  0.65737025  0.91414048  0.46932735     1.05270
H198        H  0.51625628  0.75158182  0.48656864     0.37080
O199        O  0.54575560  0.75281808  0.48960688    -1.11180
O200        O  0.60179816  0.73071301  0.44382509    -0.67830
Ni201      Ni  0.55460835  0.74585834  0.42153583     1.26350
O202        O  0.55256934  0.83541436  0.48947783    -0.68060
O203        O  0.50374083  0.67969482  0.41592695    -0.80350
C204        C  0.56110029  0.77199722  0.31887907     0.83090
O205        O  0.56609410  0.74491511  0.35155097    -0.67530
Ni206      Ni  0.53847545  0.70739073  0.53966786     1.27450
Ni207      Ni  0.59804534  0.81732073  0.49990606     1.26060
H208        H  0.63372590  0.81742768  0.42656963     0.37630
O209        O  0.84092608  0.34613842  0.02405386    -0.82320
O210        O  0.76318246  0.14520361  0.97759031    -0.67010
O211        O  0.76864554  0.25927650  0.99157631    -1.13610
C212        C  0.77184635  0.21805642  0.16751458     1.04570
O213        O  0.70211419  0.11496277  0.02092295    -0.80220
O214        O  0.67519552  0.15394900  0.08071234    -0.67800
Ni215      Ni  0.81276167  0.31554520  0.95933774     1.34870
C216        C  0.67219246  0.18955185  0.07270450     0.83300
O217        O  0.76562750  0.20995465  0.90925253    -0.80760
O218        O  0.78676685  0.28529493  0.89378236    -0.91030
C219        C  0.72928860  0.10964581  0.99786498     0.82880
O220        O  0.86407700  0.30755418  0.96124779    -0.69230
O221        O  0.75077576  0.17547957  0.15150025    -0.88520
C222        C  0.86996468  0.27472313  0.97637544     0.83710
C223        C  0.77339293  0.24413788  0.87891842     1.05270
H224        H  0.80313394  0.20740139  0.06949498     0.37080
O225        O  0.77240295  0.20193565  0.05571654    -1.11180
O226        O  0.70794142  0.23069753  0.06466379    -0.67830
Ni227      Ni  0.77571895  0.25849900  0.06536872     1.26350
O228        O  0.83650331  0.23398380  0.98873016    -0.68060
O229        O  0.78270035  0.25374337  0.13845255    -0.80350
C230        C  0.81591066  0.35322958  0.04850754     0.83090
O231        O  0.78299855  0.31855832  0.07086944    -0.67530
Ni232      Ni  0.72673208  0.14554807  0.08588553     1.27450
Ni233      Ni  0.76810587  0.20398968  0.98241946     1.26060
H234        H  0.73713896  0.25239264  0.97898739     0.37630
O235        O  0.86010049  0.35291845  0.52807652    -0.82320
O236        O  0.78383560  0.14544625  0.48420916    -0.67010
O237        O  0.79392579  0.26300383  0.49060790    -1.13610
C238        C  0.77236659  0.21960241  0.66527337     1.04570
O239        O  0.71978324  0.11441484  0.52302667    -0.80220
O240        O  0.68807815  0.15547430  0.57260760    -0.67800
Ni241      Ni  0.84558752  0.31965120  0.46549063     1.34870
C242        C  0.68487385  0.19014708  0.55790008     0.83300
O243        O  0.79256776  0.21060837  0.41370923    -0.80760
O244        O  0.83275812  0.28953597  0.40115961    -0.91030
C245        C  0.74803006  0.10958078  0.50149355     0.82880
O246        O  0.89580432  0.30986496  0.48748579    -0.69230
O247        O  0.75796225  0.17798985  0.65117797    -0.88520
C248        C  0.89636593  0.27284774  0.49595640     0.83710
C249        C  0.81079700  0.24694554  0.38497772     1.05270
H250        H  0.81916879  0.21024505  0.57605229     0.37080
O251        O  0.78908810  0.20403557  0.55855546    -1.11180
O252        O  0.72101024  0.23084248  0.54918698    -0.67830
Ni253      Ni  0.78955227  0.26019662  0.56263596     1.26350
O254        O  0.85877257  0.23159965  0.49662138    -0.68060
O255        O  0.78497939  0.25465796  0.63486411    -0.80350
C256        C  0.82804927  0.35557977  0.54429393     0.83090
O257        O  0.79328084  0.31877763  0.56208666    -0.67530
Ni258      Ni  0.74016984  0.14746616  0.58647130     1.27450
Ni259      Ni  0.79087129  0.20557037  0.48594562     1.26060
H260        H  0.76486968  0.25846334  0.47200643     0.37630
O261        O  0.22069661  0.39805664  0.07687749    -0.82320
O262        O  0.22074396  0.41982189  0.84652347    -0.67010
O263        O  0.23356430  0.44813815  0.98653583    -1.13610
C264        C  0.06537778  0.36709652  0.95400338     1.04570
O265        O  0.17782329  0.45097415  0.82770255    -0.80220
O266        O  0.14645615  0.47722803  0.89918595    -0.67800
Ni267      Ni  0.27222886  0.43649354  0.03636691     1.34870
C268        C  0.16163156  0.49396549  0.94465403     0.83300
O269        O  0.29621606  0.47065026  0.91540674    -0.80760
O270        O  0.32601013  0.47476635  0.99867152    -0.91030
C271        C  0.20193231  0.43581461  0.81412578     0.82880
O272        O  0.26196496  0.38070935  0.00825290    -0.69230
O273        O  0.07260189  0.38251929  0.90823060    -0.88520
C274        C  0.24699567  0.36229230  0.96366346     0.83710
C275        C  0.33088510  0.48514443  0.95123389     1.05270
H276        H  0.14835099  0.36646514  0.91559025     0.37080
O277        O  0.16205795  0.39997470  0.91962139    -1.11180
O278        O  0.16836283  0.47120292  0.98156914    -0.67830
Ni279      Ni  0.16639553  0.41303618  0.99009847     1.26350
O280        O  0.23018223  0.37755479  0.92706315    -0.68060
O281        O  0.09868746  0.37680490  0.99048440    -0.80350
C282        C  0.19582305  0.41132295  0.09271699     0.83090
O283        O  0.17409775  0.42519380  0.06132215    -0.67530
Ni284      Ni  0.12691418  0.41728750  0.87050839     1.27450
Ni285      Ni  0.22897640  0.43403638  0.91669406     1.26060
H286        H  0.24632681  0.48153237  0.98891026     0.37630
O287        O  0.12845616  0.46936293  0.44450250    -0.82320
O288        O  0.20072451  0.34000097  0.51167514    -0.67010
O289        O  0.19323159  0.44930546  0.48158889    -1.13610
C290        C  0.19324093  0.40925398  0.31099029     1.04570
O291        O  0.26089533  0.38418944  0.46954849    -0.80220
O292        O  0.28582285  0.44757398  0.39663438    -0.67800
Ni293      Ni  0.15357453  0.46199952  0.51076346     1.34870
C294        C  0.28932467  0.48568279  0.40500427     0.83300
O295        O  0.20104571  0.40390127  0.57271490    -0.80760
O296        O  0.17879870  0.45548466  0.57742301    -0.91030
C297        C  0.23652250  0.34608851  0.49267548     0.82880
O298        O  0.10033197  0.39895995  0.51213317    -0.69230
O299        O  0.20868835  0.38490000  0.33379115    -0.88520
C300        C  0.09248019  0.35826422  0.50641285     0.83710
C301        C  0.19543907  0.43137874  0.59778667     1.05270
H302        H  0.15637361  0.36072258  0.41418380     0.37080
O303        O  0.18729015  0.38834835  0.42594293    -1.11180
O304        O  0.25380748  0.48710467  0.41175737    -0.67830
Ni305      Ni  0.18635750  0.44312156  0.40761525     1.26350
O306        O  0.12462939  0.35108567  0.49860190    -0.68060
O307        O  0.18286646  0.43413849  0.33428411    -0.80350
C308        C  0.15786872  0.50431803  0.41965746     0.83090
O309        O  0.18393547  0.49883180  0.39436060    -0.67530
Ni310      Ni  0.23441568  0.38354748  0.40153968     1.27450
Ni311      Ni  0.19379048  0.39396571  0.49949385     1.26060
H312        H  0.22518933  0.47570416  0.49270298     0.37630
C313        C  0.21347170  0.47582412  0.73070064    -0.14780
C314        C  0.20900210  0.43808319  0.76032941     0.07370
C315        C  0.20756348  0.40095524  0.73733123    -0.14780
C316        C  0.20630794  0.39969075  0.68404190    -0.14780
C317        C  0.20714441  0.43593352  0.65390501     0.07370
C318        C  0.21321312  0.47509168  0.67805303    -0.14780
H319        H  0.21559418  0.50515451  0.74807990     0.11360
H320        H  0.20432609  0.37159708  0.76009030     0.11360
H321        H  0.20177511  0.36927382  0.66632214     0.11360
H322        H  0.21516702  0.50419094  0.65588746     0.11360
C323        C  0.21610831  0.39327969  0.18102513    -0.14780
C324        C  0.19189830  0.40940372  0.14789992     0.07370
C325        C  0.16651399  0.42526664  0.16840579    -0.14780
C326        C  0.16601472  0.42528270  0.22172513    -0.14780
C327        C  0.19058556  0.40907598  0.25458847     0.07370
C328        C  0.21554062  0.39317874  0.23335423    -0.14780
H329        H  0.23630868  0.38121893  0.16669278     0.11360
H330        H  0.14772469  0.43817488  0.14341012     0.11360
H331        H  0.14677180  0.43792925  0.23709980     0.11360
H332        H  0.23577582  0.38120437  0.25723455     0.11360
C333        C  0.96304789  0.27633372  0.46114914    -0.14780
C334        C  0.94346185  0.27891427  0.50363085     0.07370
C335        C  0.97283631  0.29737333  0.55025660    -0.14780
C336        C  0.02194084  0.31697260  0.55313302    -0.14780
C337        C  0.04252680  0.31903159  0.50925435     0.07370
C338        C  0.01241885  0.29632137  0.46392851    -0.14780
H339        H  0.94093474  0.26292321  0.42454602     0.11360
H340        H  0.95850908  0.30029219  0.58314933     0.11360
H341        H  0.04462096  0.33526777  0.58813865     0.11360
H342        H  0.02754740  0.29873448  0.42925352     0.11360
C343        C  0.93210378  0.28030433  0.93222532    -0.14780
C344        C  0.91832845  0.28569116  0.97765327     0.07370
C345        C  0.95332106  0.31374132  0.01791345    -0.14780
C346        C  0.00180730  0.33830241  0.01164035    -0.14780
C347        C  0.01543066  0.33598940  0.96445036     0.07370
C348        C  0.98035322  0.30543785  0.92556114    -0.14780
H349        H  0.90541242  0.25971461  0.90038762     0.11360
H350        H  0.94302165  0.31924427  0.05265327     0.11360
H351        H  0.02832141  0.36157756  0.04214899     0.11360
H352        H  0.99016769  0.30258303  0.88913480     0.11360
C353        C  0.76188042  0.19468787  0.80589146    -0.14780
C354        C  0.76943835  0.23669076  0.82367173     0.07370
C355        C  0.77805328  0.27332081  0.78889379    -0.14780
C356        C  0.77979098  0.26823700  0.73734171    -0.14780
C357        C  0.77286180  0.22643251  0.71982850     0.07370
C358        C  0.76364758  0.18963753  0.75451223    -0.14780
H359        H  0.75566622  0.16604289  0.83181643     0.11360
H360        H  0.78425198  0.30625773  0.80158815     0.11360
H361        H  0.78635873  0.29689547  0.71128269     0.11360
H362        H  0.75797280  0.15684480  0.74210995     0.11360
C363        C  0.81151002  0.27182547  0.24356812    -0.14780
C364        C  0.78418432  0.22582532  0.22304162     0.07370
C365        C  0.76853042  0.18687392  0.25608032    -0.14780
C366        C  0.77872009  0.19376350  0.30888488    -0.14780
C367        C  0.80471019  0.23970403  0.32950099     0.07370
C368        C  0.82180695  0.27872909  0.29642962    -0.14780
H369        H  0.82446254  0.30244892  0.21891768     0.11360
H370        H  0.74759905  0.15090940  0.24129178     0.11360
H371        H  0.76519308  0.16305841  0.33345184     0.11360
H372        H  0.84214003  0.31464485  0.31128837     0.11360
C373        C  0.42248970  0.57395356  0.40502192    -0.14780
C374        C  0.42827619  0.61232199  0.43000220     0.07370
C375        C  0.38831389  0.61044670  0.44243103    -0.14780
C376        C  0.34291835  0.56998184  0.43178886    -0.14780
C377        C  0.33678754  0.53021919  0.40937345     0.07370
C378        C  0.37681445  0.53276756  0.39507947    -0.14780
H379        H  0.45328908  0.57505590  0.39555742     0.11360
H380        H  0.39247763  0.64003360  0.46173933     0.11360
H381        H  0.31290883  0.56920141  0.44327485     0.11360
H382        H  0.37296924  0.50261115  0.37756980     0.11360
C383        C  0.71957961  0.03042309  0.53767244    -0.14780
C384        C  0.73718910  0.06175889  0.49654544     0.07370
C385        C  0.73681161  0.04490690  0.44933758    -0.14780
C386        C  0.71420180  0.99632295  0.44179153    -0.14780
C387        C  0.69245540  0.96443245  0.48162570     0.07370
C388        C  0.69772454  0.98198638  0.53042552    -0.14780
H389        H  0.72004369  0.04318676  0.57457570     0.11360
H390        H  0.75018424  0.06864392  0.41727523     0.11360
H391        H  0.71086106  0.98342171  0.40382404     0.11360
H392        H  0.68124139  0.95814475  0.56156334     0.11360
C393        C  0.38669996  0.55154663  0.89855108    -0.14780
C394        C  0.37926462  0.51861472  0.93783529     0.07370
C395        C  0.41856038  0.52366035  0.97002787    -0.14780
C396        C  0.46359730  0.56469450  0.96817559    -0.14780
C397        C  0.46939087  0.60134820  0.93488645     0.07370
C398        C  0.43181415  0.59304080  0.89715212    -0.14780
H399        H  0.35681439  0.54795990  0.87283058     0.11360
H400        H  0.41372749  0.49801923  0.99968588     0.11360
H401        H  0.49259046  0.57012281  0.99689833     0.11360
H402        H  0.43562792  0.62078229  0.87098683     0.11360
C403        C  0.68157650  0.98321675  0.03190219    -0.14780
C404        C  0.68642181  0.96686438  0.98732420     0.07370
C405        C  0.71337969  0.99938276  0.95034892    -0.14780
C406        C  0.73099463  0.04724458  0.95534453    -0.14780
C407        C  0.72108985  0.06255925  0.99699319     0.07370
C408        C  0.69854947  0.03085592  0.03652527    -0.14780
H409        H  0.66083315  0.95869385  0.06067738     0.11360
H410        H  0.71770436  0.98718727  0.91576325     0.11360
H411        H  0.74882349  0.07133677  0.92488605     0.11360
H412        H  0.69158078  0.04243125  0.06966203     0.11360
C413        C  0.58969466  0.75165204  0.74392225    -0.14780
C414        C  0.57693197  0.77978373  0.76437029     0.07370
C415        C  0.57219732  0.81222849  0.73164639    -0.14780
C416        C  0.57932721  0.81596223  0.67979347    -0.14780
C417        C  0.59113491  0.78716272  0.65908772     0.07370
C418        C  0.59648760  0.75514614  0.69193436    -0.14780
H419        H  0.59412912  0.72672220  0.76798304     0.11360
H420        H  0.56290596  0.83493010  0.74611141     0.11360
H421        H  0.57443960  0.84058337  0.65564617     0.11360
H422        H  0.60539918  0.73221174  0.67727184     0.11360
C423        C  0.59606334  0.75440565  0.19463908    -0.14780
C424        C  0.58963205  0.78529699  0.16080966     0.07370
C425        C  0.57237672  0.81025852  0.17920307    -0.14780
C426        C  0.56203321  0.80468454  0.22998003    -0.14780
C427        C  0.56865230  0.77400536  0.26394733     0.07370
C428        C  0.58578392  0.74888514  0.24556628    -0.14780
H429        H  0.60890085  0.73418528  0.18167856     0.11360
H430        H  0.56637954  0.83376602  0.15420999     0.11360
H431        H  0.54910679  0.82489773  0.24273961     0.11360
H432        H  0.59172636  0.72538508  0.27063535     0.11360
C433        C  0.86477373  0.48017903  0.50451789    -0.14780
C434        C  0.82951376  0.48324769  0.52258461     0.07370
C435        C  0.79435501  0.44482388  0.54842560    -0.14780
C436        C  0.79420840  0.40355119  0.55615452    -0.14780
C437        C  0.82970736  0.40024151  0.53872096     0.07370
C438        C  0.86488624  0.43889548  0.51253315    -0.14780
H439        H  0.89270592  0.50997660  0.48546704     0.11360
H440        H  0.76734895  0.44713356  0.56335293     0.11360
H441        H  0.76641525  0.37433478  0.57592194     0.11360
H442        H  0.89245011  0.43721406  0.49814202     0.11360
C443        C  0.67597116  0.66208986  0.43706984    -0.14780
C444        C  0.68454742  0.64199021  0.48261850     0.07370
C445        C  0.67333170  0.64967962  0.52871225    -0.14780
C446        C  0.64978631  0.67308846  0.52836436    -0.14780
C447        C  0.63751366  0.68961631  0.48201901     0.07370
C448        C  0.65286111  0.68593535  0.43681369    -0.14780
H449        H  0.68481025  0.65712310  0.40099979     0.11360
H450        H  0.67956635  0.63467233  0.56429366     0.11360
H451        H  0.63901481  0.67613696  0.56404382     0.11360
H452        H  0.64415619  0.69855530  0.40070035     0.11360
C453        C  0.80482670  0.45540495  0.07000587    -0.14780
C454        C  0.83160569  0.48722204  0.03262313     0.07370
C455        C  0.85388616  0.47551093  0.00144534    -0.14780
C456        C  0.84985339  0.43229426  0.00808311    -0.14780
C457        C  0.82249846  0.39991386  0.04511701     0.07370
C458        C  0.79981279  0.41170934  0.07586639    -0.14780
H459        H  0.78719791  0.46422293  0.09416226     0.11360
H460        H  0.87472314  0.49989407  0.97264522     0.11480
H461        H  0.86740229  0.42385320  0.98342235     0.11360
H462        H  0.77829135  0.38727051  0.10421640     0.11360
C463        C  0.68564843  0.66691407  0.92838499    -0.14780
C464        C  0.70049884  0.65285513  0.97493897     0.07370
C465        C  0.70663227  0.67537979  0.02081904    -0.14780
C466        C  0.69163096  0.70631226  0.02102393    -0.14780
C467        C  0.66988652  0.71453823  0.97547349     0.07370
C468        C  0.67055815  0.69775692  0.92863803    -0.14780
H469        H  0.68222952  0.65139118  0.89205250     0.11360
H470        H  0.71939534  0.66635095  0.05701073     0.11360
H471        H  0.69222374  0.71965497  0.05761121     0.11360
H472        H  0.65427973  0.70380976  0.89299179     0.11360
C473        C  0.79909710  0.55876790  0.78504412    -0.14780
C474        C  0.77705106  0.57837171  0.80467892     0.07370
C475        C  0.74934836  0.59036161  0.76993117    -0.14780
C476        C  0.74373078  0.58285946  0.71694612    -0.14780
C477        C  0.76576574  0.56326185  0.69729855     0.07370
C478        C  0.79350916  0.55129933  0.73201937    -0.14780
H479        H  0.81998235  0.54852805  0.81064807     0.11360
H480        H  0.73167540  0.60548827  0.78374318     0.11360
H481        H  0.72286414  0.59313516  0.69135939     0.11360
H482        H  0.81121163  0.53623012  0.71814977     0.11360
C483        C  0.79935128  0.56383386  0.23215726    -0.14780
C484        C  0.76698541  0.56936369  0.19700743     0.07370
C485        C  0.73791409  0.58090985  0.21628696    -0.14780
C486        C  0.74115059  0.58667013  0.26939203    -0.14780
C487        C  0.77355115  0.58105890  0.30441995     0.07370
C488        C  0.80260643  0.56962450  0.28504968    -0.14780
H489        H  0.82257520  0.55508808  0.21881251     0.11360
H490        H  0.71304778  0.58585459  0.19041859     0.11360
H491        H  0.71794414  0.59528349  0.28304319     0.11360
H492        H  0.82751647  0.56463352  0.31077653     0.11360
C493        C  0.42354571  0.81507896  0.51587513    -0.14780
C494        C  0.39155461  0.81321677  0.47411667     0.07370
C495        C  0.40589523  0.82299043  0.42466144    -0.14780
C496        C  0.45059195  0.83252369  0.41697746    -0.14780
C497        C  0.48192291  0.83286409  0.45867975     0.07370
C498        C  0.46815455  0.82490943  0.50829710    -0.14780
H499        H  0.41391406  0.80833992  0.55458970     0.11360
H500        H  0.38208275  0.82195734  0.39174631     0.11360
H501        H  0.46005584  0.83839704  0.37823764     0.11360
H502        H  0.49128301  0.82487334  0.54133175     0.11360
C503        C  0.21204342  0.63697318  0.41349140    -0.14780
C504        C  0.20247710  0.64554661  0.46055737     0.07370
C505        C  0.17472139  0.60689276  0.49145545    -0.14780
C506        C  0.15776058  0.56080179  0.47621346    -0.14780
C507        C  0.16927792  0.55232453  0.43038525     0.07370
C508        C  0.19622320  0.59091003  0.39892102    -0.14780
H509        H  0.23362670  0.66617969  0.38901228     0.11360
H510        H  0.16668626  0.61238732  0.52778591     0.11360
H511        H  0.13749030  0.53196227  0.50169276     0.11360
H512        H  0.20596588  0.58558727  0.36368741     0.11360
C513        C  0.01732196  0.73571414  0.44308762    -0.14780
C514        C  0.05332472  0.75112619  0.48543716     0.07370
C515        C  0.03978571  0.73984966  0.53506901    -0.14780
C516        C  0.99155187  0.71152948  0.54213605    -0.14780
C517        C  0.95550611  0.69322903  0.49972362     0.07370
C518        C  0.96890604  0.70685236  0.45013781    -0.14780
H519        H  0.02652885  0.74371328  0.40421897     0.11360
H520        H  0.06650393  0.75133709  0.56847267     0.11360
H521        H  0.98273076  0.70230895  0.58105961     0.11360
H522        H  0.94217078  0.69371435  0.41671297     0.11360
C523        C  0.40556563  0.81851218  0.92615325    -0.14780
C524        C  0.38908864  0.80355439  0.97449545     0.07370
C525        C  0.41864813  0.79944066  0.01483461    -0.14780
C526        C  0.46317571  0.80943497  0.00714005    -0.14780
C527        C  0.47960377  0.82375337  0.95879718     0.07370
C528        C  0.45045444  0.82848008  0.91835009    -0.14780
H529        H  0.38371450  0.82221727  0.89433500     0.11360
H530        H  0.40734705  0.78811844  0.05263063     0.11360
H531        H  0.48443148  0.80516371  0.03922048     0.11360
H532        H  0.46205099  0.83931695  0.88062348     0.11360
C533        C  0.20060106  0.60629408  0.01693538    -0.14780
C534        C  0.20202242  0.63697993  0.97710145     0.07370
C535        C  0.18712316  0.61904120  0.92635902    -0.14780
C536        C  0.17274933  0.57237880  0.91576364    -0.14780
C537        C  0.17301616  0.54235740  0.95557673     0.07370
C538        C  0.18643458  0.55989883  0.00637006    -0.14780
H539        H  0.21169872  0.61848792  0.05651749     0.11360
H540        H  0.18783397  0.64148120  0.89459173     0.11360
H541        H  0.16264287  0.56025766  0.87618088     0.11360
H542        H  0.18691847  0.53800952  0.03820305     0.11360
C543        C  0.02009961  0.73707348  0.94174027    -0.14780
C544        C  0.05615942  0.75383399  0.98410593     0.07370
C545        C  0.04277739  0.74456773  0.03380905    -0.14780
C546        C  0.99458848  0.71673889  0.04106378    -0.14780
C547        C  0.95850650  0.69695665  0.99879101     0.07370
C548        C  0.97175653  0.70868736  0.94900345    -0.14780
H549        H  0.02919354  0.74350345  0.90282044     0.11360
H550        H  0.06956842  0.75710977  0.06719889     0.11360
H551        H  0.98584431  0.70893553  0.08010837     0.11360
H552        H  0.94496511  0.69437970  0.91567979     0.11360
C553        C  0.23506715  0.75764744  0.76527153    -0.14780
C554        C  0.22875988  0.79121349  0.78472674     0.07370
C555        C  0.21700914  0.81773614  0.74979723    -0.14780
C556        C  0.21191277  0.81102035  0.69673834    -0.14780
C557        C  0.21844120  0.77760845  0.67726002     0.07370
C558        C  0.23002833  0.75097103  0.71220602    -0.14780
H559        H  0.24372345  0.73634667  0.79105864     0.11360
H560        H  0.21154072  0.84365650  0.76344177     0.11360
H561        H  0.20337038  0.83241225  0.67097175     0.11360
H562        H  0.23560311  0.72512770  0.69856612     0.11360
C563        C  0.23646161  0.76055775  0.21419006    -0.14780
C564        C  0.22211095  0.78406381  0.17767426     0.07370
C565        C  0.21293317  0.81634303  0.19504944    -0.14780
C566        C  0.21767494  0.82461364  0.24772511    -0.14780
C567        C  0.23193514  0.80097060  0.28418917     0.07370
C568        C  0.24135746  0.76893207  0.26672594    -0.14780
H569        H  0.24420253  0.73576620  0.20220249     0.11360
H570        H  0.20219725  0.83534114  0.16793920     0.11360
H571        H  0.20979269  0.84924434  0.25987695     0.11360
H572        H  0.25198451  0.74976878  0.29371171     0.11360
C573        C  0.51429114  0.36507608  0.46416176    -0.14780
C574        C  0.49830775  0.35220875  0.51265255     0.07370
C575        C  0.52690903  0.38271632  0.55489030    -0.14780
C576        C  0.57123765  0.42443949  0.54888153    -0.14780
C577        C  0.58752594  0.43666473  0.50041806     0.07370
C578        C  0.55811075  0.40672638  0.45810044    -0.14780
H579        H  0.49334602  0.34248042  0.43086966     0.11360
H580        H  0.51572249  0.37366926  0.59291834     0.11360
H581        H  0.59290304  0.44675977  0.58214121     0.11360
H582        H  0.56941145  0.41477479  0.42010652     0.11360
C583        C  0.58553404  0.21081777  0.56191502    -0.14780
C584        C  0.54462679  0.16661455  0.54580474     0.07370
C585        C  0.55009223  0.13029249  0.53359419    -0.14780
C586        C  0.59563967  0.13788639  0.53782937    -0.14780
C587        C  0.63678885  0.18256515  0.55238526     0.07370
C588        C  0.63125087  0.21889325  0.56468745    -0.14780
H589        H  0.58222250  0.23978982  0.56989482     0.11360
H590        H  0.51913710  0.09639403  0.51959832     0.11360
H591        H  0.59881168  0.10917736  0.52834037     0.11360
H592        H  0.66227082  0.25345689  0.57666635     0.11360
C593        C  0.31739988  0.00218591  0.54634434    -0.14780
C594        C  0.32335412  0.03379698  0.50613954     0.07370
C595        C  0.29314280  0.01609782  0.45954603    -0.14780
C596        C  0.25983709  0.96768944  0.45179315    -0.14780
C597        C  0.25592876  0.93530400  0.49035385     0.07370
C598        C  0.28396103  0.95321242  0.53846340    -0.14780
H599        H  0.34055602  0.01491269  0.58242233     0.11360
H600        H  0.29694273  0.03980472  0.42794083     0.11360
H601        H  0.23875970  0.95556228  0.41450747     0.11360
H602        H  0.28176658  0.92928098  0.56914771     0.11360
C603        C  0.29745125  0.28890579  0.45272921    -0.14780
C604        C  0.28892605  0.25528805  0.49091383     0.07370
C605        C  0.25669319  0.24646684  0.52587527    -0.14780
C606        C  0.23641266  0.27342410  0.52512512    -0.14780
C607        C  0.24871683  0.31017340  0.48984718     0.07370
C608        C  0.27778782  0.31605611  0.45232320    -0.14780
H609        H  0.32276859  0.29726767  0.42613106     0.11360
H610        H  0.24992802  0.22092804  0.55619428     0.11360
H611        H  0.21401477  0.26773296  0.55413145     0.11360
H612        H  0.28754100  0.34359952  0.42382680     0.11360
C613        C  0.40070114  0.15516381  0.79310919    -0.14780
C614        C  0.39881971  0.19103904  0.81514906     0.07370
C615        C  0.40610830  0.22948856  0.78452287    -0.14780
C616        C  0.41522516  0.23213259  0.73354221    -0.14780
C617        C  0.41737132  0.19644543  0.71153928     0.07370
C618        C  0.40970471  0.15775078  0.74197000    -0.14780
H619        H  0.39563653  0.12503322  0.81562382     0.11360
H620        H  0.40504413  0.25767999  0.80000327     0.11360
H621        H  0.42038695  0.26235844  0.71114942     0.11360
H622        H  0.41092063  0.12968427  0.72640850     0.11360
C623        C  0.40521120  0.23442632  0.23749115    -0.14780
C624        C  0.39875243  0.19617159  0.21034453     0.07370
C625        C  0.38536462  0.15413380  0.23709154    -0.14780
C626        C  0.37935347  0.15074927  0.28944258    -0.14780
C627        C  0.38637800  0.18921635  0.31671557     0.07370
C628        C  0.39913210  0.23101687  0.28978977    -0.14780
H629        H  0.41519002  0.26744049  0.21828635     0.11360
H630        H  0.37966729  0.12390344  0.21766008     0.11360
H631        H  0.36965672  0.11785605  0.30878796     0.11360
H632        H  0.40524608  0.26139611  0.30931611     0.11360
C633        C  0.53158998  0.38035029  0.05326315    -0.14780
C634        C  0.49993022  0.35479056  0.00943236     0.07370
C635        C  0.51321070  0.37275686  0.96077428    -0.14780
C636        C  0.55720744  0.41470652  0.95584144    -0.14780
C637        C  0.58974162  0.43980666  0.99943514     0.07370
C638        C  0.57618366  0.42230189  0.04832756    -0.14780
H639        H  0.52241838  0.36724523  0.09140407     0.11360
H640        H  0.48963373  0.35421016  0.92630866     0.11360
H641        H  0.56600675  0.42687296  0.91738315     0.11360
H642        H  0.60024328  0.44051716  0.08264498     0.11360
C643        C  0.57506742  0.21350228  0.07523969    -0.14780
C644        C  0.53355990  0.16792694  0.06708312     0.07370
C645        C  0.53781822  0.12927513  0.06435553    -0.14780
C646        C  0.58296514  0.13623918  0.06799947    -0.14780
C647        C  0.62468548  0.18221180  0.07299774     0.07370
C648        C  0.62029482  0.22066917  0.07796029    -0.14780
H649        H  0.57241077  0.24396621  0.07555907     0.11360
H650        H  0.50620481  0.09410291  0.05621011     0.11360
H651        H  0.58507118  0.10579851  0.06424230     0.11360
H652        H  0.65170660  0.25639656  0.08238874     0.11360
C653        C  0.30968047  0.00351687  0.04389576    -0.14780
C654        C  0.31794732  0.03475168  0.00264151     0.07370
C655        C  0.29341853  0.01572602  0.95374646    -0.14780
C656        C  0.26326058  0.96684885  0.94544142    -0.14780
C657        C  0.25689399  0.93511221  0.98573536     0.07370
C658        C  0.27949981  0.95411129  0.03549466    -0.14780
H659        H  0.32872847  0.01708320  0.08175943     0.11360
H660        H  0.29938341  0.03892081  0.92110046     0.11360
H661        H  0.24648310  0.95396822  0.90674359     0.11360
H662        H  0.27526552  0.93080402  0.06759307     0.11360
C663        C  0.25628022  0.25713541  0.98930103    -0.14780
C664        C  0.29246371  0.26779546  0.95948809     0.07370
C665        C  0.30554206  0.30386085  0.92294019    -0.14780
C666        C  0.28599117  0.33160636  0.91997812    -0.14780
C667        C  0.25361410  0.32390361  0.95387489     0.07370
C668        C  0.23747265  0.28520888  0.98697380    -0.14780
H669        H  0.24607230  0.22994740  0.01829011     0.11360
H670        H  0.33426850  0.31372980  0.90060800     0.11360
H671        H  0.29984734  0.36204695  0.89499442     0.11360
H672        H  0.21313347  0.27899040  0.01390229     0.11360
loop_ 
_geom_bond_atom_site_label_1 
_geom_bond_atom_site_label_2 
_geom_bond_distance 
_geom_bond_site_symmetry_2 
_ccdc_geom_bond_type 
O1           Ni7   1.914       .  S
O1           C22   1.265       .  A
O2          Ni25   1.955       .  S
O2           C11   1.281       .  A
O3           Ni7   1.909       .  S
O3          Ni25   1.929   1_554  S
O3          Ni19   1.924       .  S
O3           H26   0.966       .  S
C4           O21   1.285       .  A
C4           O13   1.275   1_554  A
C4          C644   1.464       .  S
O5          Ni24   1.903       .  S
O5           C11   1.263       .  A
O6          Ni24   1.891       .  S
O6            C8   1.265   1_556  A
Ni7          O10   1.911       .  S
Ni7          O12   1.906       .  S
C8           O18   1.282       .  A
C8          C654   1.488       .  S
O9          Ni25   1.946       .  S
O9           C15   1.285       .  A
O10          C15   1.275   1_554  A
C11         C614   1.496       .  S
O12          C14   1.266       .  A
O13         Ni24   1.901       .  S
C14          O20   1.274   1_554  A
C14         C634   1.485       .  S
C15         C664   1.480       .  S
H16          O17   0.966       .  S
O17         Ni25   1.923       .  S
O17         Ni19   1.907   1_556  S
O17         Ni24   1.887       .  S
O18         Ni19   1.965       .  S
Ni19         O23   1.952       .  S
Ni19         O21   1.944       .  S
O20         Ni25   1.936       .  S
C22          O23   1.279       .  A
C22         C624   1.501       .  S
O27         Ni33   1.894       .  S
O27          C48   1.259       .  A
O28         Ni51   1.960       .  S
O28          C37   1.282       .  A
O29         Ni33   1.903       .  S
O29         Ni51   1.916       .  S
O29         Ni45   1.931       .  S
O29          H52   0.966       .  S
C30          O47   1.286       .  A
C30          O39   1.276       .  A
C30         C584   1.475       .  S
O31         Ni50   1.907       .  S
O31          C37   1.264       .  A
O32         Ni50   1.888       .  S
O32          C34   1.265       .  A
Ni33         O36   1.900       .  S
Ni33         O38   1.904       .  S
C34          O44   1.279       .  A
C34         C594   1.481       .  S
O35         Ni51   1.962       .  S
O35          C41   1.293       .  A
O36          C41   1.274       .  A
C37         C627   1.500       .  S
O38          C40   1.266       .  A
O39         Ni50   1.912       .  S
C40          O46   1.272       .  A
C40         C574   1.483       .  S
C41         C604   1.482       .  S
H42          O43   0.966       .  S
O43         Ni51   1.933       .  S
O43         Ni45   1.909       .  S
O43         Ni50   1.890       .  S
O44         Ni45   1.955       .  S
Ni45         O49   1.956       .  S
Ni45         O47   1.947       .  S
O46         Ni51   1.925       .  S
C48          O49   1.277       .  A
C48         C617   1.495       .  S
O53         Ni59   1.928       .  S
O53          C74   1.272       .  A
O54         Ni77   1.915       .  S
O54          C63   1.270       .  A
O55         Ni59   1.905       .  S
O55         Ni77   1.910   1_554  S
O55         Ni71   1.914       .  S
O55          H78   0.966       .  S
C56          O73   1.280   1_556  A
C56          O65   1.277       .  A
C56         C544   1.481       .  S
O57         Ni76   1.924       .  S
O57          C63   1.271       .  A
O58         Ni76   1.922       .  S
O58          C60   1.272       .  A
Ni59         O62   1.918       .  S
Ni59         O64   1.915       .  S
C60          O70   1.270   1_556  A
C60         C657   1.499       .  S
O61         Ni77   1.918       .  S
O61          C67   1.277       .  A
O62          C67   1.278   1_554  A
C63         C554   1.485       .  S
O64          C66   1.271   1_554  A
O65         Ni76   1.918       .  S
C66          O72   1.277       .  A
C66         C534   1.501       .  S
C67         C524   1.481       .  S
H68          O69   0.966       .  S
O69         Ni77   1.911       .  S
O69         Ni71   1.906   1_556  S
O69         Ni76   1.911       .  S
O70         Ni71   1.934       .  S
Ni71         O75   1.911       .  S
Ni71         O73   1.922       .  S
O72         Ni77   1.948       .  S
C74          O75   1.268       .  A
C74         C564   1.485       .  S
O79         Ni85   1.929       .  S
O79         C100   1.271       .  A
O80        Ni103   1.905       .  S
O80          C89   1.266       .  A
O81         Ni85   1.911       .  S
O81        Ni103   1.908       .  S
O81         Ni97   1.910       .  S
O81         H104   0.966       .  S
C82          O99   1.278       .  A
C82          O91   1.275       .  A
C82         C514   1.483       .  S
O83        Ni102   1.929       .  S
O83          C89   1.271       .  A
O84        Ni102   1.917       .  S
O84          C86   1.272       .  A
Ni85         O88   1.926       .  S
Ni85         O90   1.918       .  S
C86          O96   1.270       .  A
C86         C597   1.492       .  S
O87        Ni103   1.914       .  S
O87          C93   1.276       .  A
O88          C93   1.278       .  A
C89         C567   1.484       .  S
O90          C92   1.270       .  A
O91        Ni102   1.919       .  S
C92          O98   1.269       .  A
C92         C504   1.485       .  S
C93         C494   1.481       .  S
H94          O95   0.966       .  S
O95        Ni103   1.915       .  S
O95         Ni97   1.914       .  S
O95        Ni102   1.919       .  S
O96         Ni97   1.928       .  S
Ni97        O101   1.913       .  S
Ni97         O99   1.920       .  S
O98        Ni103   1.926       .  S
C100        O101   1.269       .  A
C100        C557   1.486       .  S
O105       Ni111   1.903       .  S
O105        C126   1.260       .  A
O106       Ni129   1.945       .  S
O106        C115   1.277       .  A
O107       Ni111   1.894       .  S
O107       Ni129   1.914   1_554  S
O107       Ni123   1.928       .  S
O107        H130   0.966       .  S
C108        O125   1.288   1_556  A
C108        O117   1.277       .  A
C108        C637   1.491       .  S
O109       Ni128   1.904       .  S
O109        C115   1.262       .  A
O110       Ni128   1.882       .  S
O110        C112   1.263       .  A
Ni111       O114   1.906       .  S
Ni111       O116   1.881       .  S
C112        O122   1.271   1_556  A
C112        C464   1.471       .  S
O113       Ni129   1.937       .  S
O113        C119   1.284   1_556  A
O114        C119   1.275       .  A
C115        C474   1.487       .  S
O116        C118   1.262       .  A
O117       Ni128   1.907       .  S
C118        O124   1.271   1_554  A
C118        C454   1.454       .  S
C119        C547   1.484   1_554  S
H120        O121   0.966       .  S
O121       Ni129   1.919       .  S
O121       Ni123   1.906   1_556  S
O121       Ni128   1.888       .  S
O122       Ni123   1.922       .  S
Ni123       O127   1.947       .  S
Ni123       O125   1.950       .  S
O124       Ni129   1.925       .  S
C126        O127   1.276       .  A
C126        C484   1.488       .  S
O131       Ni137   1.906       .  S
O131        C152   1.261       .  A
O132       Ni155   1.938       .  S
O132        C141   1.277       .  A
O133       Ni137   1.901       .  S
O133       Ni155   1.914       .  S
O133       Ni149   1.926       .  S
O133        H156   0.966       .  S
C134        O151   1.287       .  A
C134        O143   1.278       .  A
C134        C577   1.484       .  S
O135       Ni154   1.907       .  S
O135        C141   1.264       .  A
O136       Ni154   1.888       .  S
O136        C138   1.264       .  A
Ni137       O140   1.908       .  S
Ni137       O142   1.890       .  S
C138        O148   1.275       .  A
C138        C444   1.476       .  S
O139       Ni155   1.938       .  S
O139        C145   1.284       .  A
O140        C145   1.276       .  A
C141        C487   1.487       .  S
O142        C144   1.262       .  A
O143       Ni154   1.907       .  S
C144        O150   1.272       .  A
C144        C434   1.463       .  S
C145        C517   1.486       .  S
H146        O147   0.966       .  S
O147       Ni155   1.917       .  S
O147       Ni149   1.905       .  S
O147       Ni154   1.887       .  S
O148       Ni149   1.936       .  S
Ni149       O153   1.943       .  S
Ni149       O151   1.943       .  S
O150       Ni155   1.936       .  S
C152        O153   1.276       .  A
C152        C477   1.487       .  S
O157       Ni163   1.912       .  S
O157        C178   1.265       .  A
O158       Ni181   1.942       .  S
O158        C167   1.273       .  A
O159       Ni163   1.913       .  S
O159       Ni181   1.920   1_556  S
O159       Ni175   1.907       .  S
O159        H182   0.967       .  S
C160        O177   1.278       .  A
C160        O169   1.275       .  A
C160        C397   1.463       .  S
O161       Ni180   1.906       .  S
O161        C167   1.261       .  A
O162       Ni180   1.875       .  S
O162        C164   1.263   1_554  A
Ni163       O166   1.902       .  S
Ni163       O168   1.914       .  S
C164        O174   1.273       .  A
C164        C467   1.465       .  S
O165       Ni181   1.915       .  S
O165        C171   1.279   1_554  A
O166        C171   1.274       .  A
C167        C424   1.492       .  S
O168        C170   1.267       .  A
O169       Ni180   1.900   1_556  S
C170        O176   1.266       .  A
C170        C527   1.481       .  S
C171        C404   1.460       .  S
H172        O173   0.966       .  S
O173       Ni181   1.913   1_556  S
O173       Ni175   1.918       .  S
O173       Ni180   1.900   1_556  S
O174       Ni175   1.926       .  S
Ni175       O179   1.937       .  S
Ni175       O177   1.920       .  S
O176       Ni181   1.907   1_556  S
C178        O179   1.273       .  A
C178        C414   1.492       .  S
O183       Ni189   1.913       .  S
O183        C204   1.265       .  A
O184       Ni207   1.943       .  S
O184        C193   1.277       .  A
O185       Ni189   1.903       .  S
O185       Ni207   1.915       .  S
O185       Ni201   1.908       .  S
O185        H208   0.968       .  S
C186        O203   1.280       .  A
C186        O195   1.276       .  A
C186        C374   1.456       .  S
O187       Ni206   1.910       .  S
O187        C193   1.265       .  A
O188       Ni206   1.895       .  S
O188        C190   1.267       .  A
Ni189       O192   1.912       .  S
Ni189       O194   1.908       .  S
C190        O200   1.276       .  A
C190        C447   1.476       .  S
O191       Ni207   1.917       .  S
O191        C197   1.282       .  A
O192        C197   1.277       .  A
C193        C417   1.491       .  S
O194        C196   1.266       .  A
O195       Ni206   1.902       .  S
C196        O202   1.269       .  A
C196        C497   1.482       .  S
C197        C387   1.467       .  S
H198        O199   0.965       .  S
O199       Ni207   1.913       .  S
O199       Ni201   1.906       .  S
O199       Ni206   1.884       .  S
O200       Ni201   1.933       .  S
Ni201       O205   1.939       .  S
Ni201       O203   1.930       .  S
O202       Ni207   1.923       .  S
C204        O205   1.275       .  A
C204        C427   1.492       .  S
O209       Ni215   1.890   1_554  S
O209        C230   1.258       .  A
O210       Ni233   1.915       .  S
O210        C219   1.268       .  A
O211       Ni215   1.890       .  S
O211       Ni233   1.893       .  S
O211       Ni227   1.921   1_556  S
O211        H234   0.966       .  S
C212        O229   1.281       .  A
C212        O221   1.277       .  A
C212        C364   1.461       .  S
O213       Ni232   1.891       .  S
O213        C219   1.263   1_554  A
O214       Ni232   1.897       .  S
O214        C216   1.265       .  A
Ni215       O218   1.902       .  S
Ni215       O220   1.888       .  S
C216        O226   1.273       .  A
C216        C647   1.483       .  S
O217       Ni233   1.915       .  S
O217        C223   1.281       .  A
O218        C223   1.277       .  A
C219        C407   1.461       .  S
O220        C222   1.262       .  A
O221       Ni232   1.898       .  S
C222        O228   1.269       .  A
C222        C344   1.457       .  S
C223        C354   1.466       .  S
H224        O225   0.966       .  S
O225       Ni233   1.911   1_554  S
O225       Ni227   1.888       .  S
O225       Ni232   1.883       .  S
O226       Ni227   1.934       .  S
Ni227       O231   1.922       .  S
Ni227       O229   1.909       .  S
O228       Ni233   1.930       .  S
C230        O231   1.269       .  A
C230        C457   1.467       .  S
O235       Ni241   1.907       .  S
O235        C256   1.266       .  A
O236       Ni259   1.917       .  S
O236        C245   1.267       .  A
O237       Ni241   1.903       .  S
O237       Ni259   1.901       .  S
O237       Ni253   1.912       .  S
O237        H260   0.966       .  S
C238        O255   1.279       .  A
C238        O247   1.275       .  A
C238        C357   1.465       .  S
O239       Ni258   1.896       .  S
O239        C245   1.262       .  A
O240       Ni258   1.905       .  S
O240        C242   1.266       .  A
Ni241       O244   1.906       .  S
Ni241       O246   1.906       .  S
C242        O252   1.274       .  A
C242        C587   1.484       .  S
O243       Ni259   1.901       .  S
O243        C249   1.277       .  A
O244        C249   1.276       .  A
C245        C384   1.461       .  S
O246        C248   1.267       .  A
O247       Ni258   1.896       .  S
C248        O254   1.270       .  A
C248        C334   1.472       .  S
C249        C367   1.462       .  S
H250        O251   0.966       .  S
O251       Ni259   1.914       .  S
O251       Ni253   1.902       .  S
O251       Ni258   1.897       .  S
O252       Ni253   1.937       .  S
Ni253       O257   1.915       .  S
Ni253       O255   1.915       .  S
O254       Ni259   1.933       .  S
C256        O257   1.270       .  A
C256        C437   1.479       .  S
O261       Ni267   1.921       .  S
O261        C282   1.273       .  A
O262       Ni285   1.882       .  S
O262        C271   1.258       .  A
O263       Ni267   1.894   1_556  S
O263       Ni285   1.893       .  S
O263       Ni279   1.908       .  S
O263        H286   0.966       .  S
C264        O281   1.275       .  A
C264        O273   1.279       .  A
C264        C347   1.471       .  S
O265       Ni284   1.931       .  S
O265        C271   1.273       .  A
O266       Ni284   1.928       .  S
O266        C268   1.270       .  A
Ni267       O270   1.923   1_554  S
Ni267       O272   1.906       .  S
C268        O278   1.270       .  A
C268        C537   1.501       .  S
O269       Ni285   1.899       .  S
O269        C275   1.272       .  A
O270        C275   1.280       .  A
C271        C314   1.457       .  S
O272        C274   1.267   1_554  A
O273       Ni284   1.925       .  S
C274        O280   1.271       .  A
C274        C667   1.479       .  S
C275        C394   1.464       .  S
H276        O277   0.968       .  S
O277       Ni285   1.899       .  S
O277       Ni279   1.901       .  S
O277       Ni284   1.909       .  S
O278       Ni279   1.931       .  S
Ni279       O283   1.896   1_556  S
Ni279       O281   1.910       .  S
O280       Ni285   1.934       .  S
C282        O283   1.262       .  A
C282        C324   1.469       .  S
O287       Ni293   1.890       .  S
O287        C308   1.263       .  A
O288       Ni311   1.965       .  S
O288        C297   1.278       .  A
O289       Ni293   1.880       .  S
O289       Ni311   1.909       .  S
O289       Ni305   1.938       .  S
O289        H312   0.966       .  S
C290        O307   1.290       .  A
C290        O299   1.276       .  A
C290        C327   1.473       .  S
O291       Ni310   1.878       .  S
O291        C297   1.255       .  A
O292       Ni310   1.899       .  S
O292        C294   1.261       .  A
Ni293       O296   1.891       .  S
Ni293       O298   1.889       .  S
C294        O304   1.263       .  A
C294        C377   1.472       .  S
O295       Ni311   1.935       .  S
O295        C301   1.284       .  A
O296        C301   1.275       .  A
C297        C607   1.491       .  S
O298        C300   1.267       .  A
O299       Ni310   1.877       .  S
C300        O306   1.280       .  A
C300        C337   1.473       .  S
C301        C317   1.468       .  S
H302        O303   0.966       .  S
O303       Ni311   1.926       .  S
O303       Ni305   1.899       .  S
O303       Ni310   1.886       .  S
O304       Ni305   1.906       .  S
Ni305       O309   1.937       .  S
Ni305       O307   1.949       .  S
O306       Ni311   1.953       .  S
C308        O309   1.270       .  A
C308        C507   1.487       .  S
C313        C314   1.394       .  A
C313        C318   1.385       .  A
C313        H319   1.084       .  S
C314        C315   1.406       .  A
C315        C316   1.398       .  A
C315        H320   1.083       .  S
C316        C317   1.402       .  A
C316        H321   1.083       .  S
C317        C318   1.408       .  A
C318        H322   1.083       .  S
C323        C324   1.396       .  A
C323        C328   1.378       .  A
C323        H329   1.083       .  S
C324        C325   1.411       .  A
C325        C326   1.404       .  A
C325        H330   1.083       .  S
C326        C327   1.403       .  A
C326        H331   1.083       .  S
C327        C328   1.408       .  A
C328        H332   1.083       .  S
C333        C334   1.406       .  A
C333        C338   1.404   1_655  A
C333        H339   1.083       .  S
C334        C335   1.399       .  A
C335        C336   1.398   1_655  A
C335        H340   1.083       .  S
C336        C337   1.407       .  A
C336        H341   1.084       .  S
C337        C338   1.403       .  A
C338        H342   1.083       .  S
C343        C344   1.398       .  A
C343        C348   1.393       .  A
C343        H349   1.084       .  S
C344        C345   1.403   1_556  A
C345        C346   1.399   1_655  A
C345        H350   1.083       .  S
C346        C347   1.404   1_554  A
C346        H351   1.083       .  S
C347        C348   1.405   1_455  A
C348        H352   1.083       .  S
C353        C354   1.401       .  A
C353        C358   1.387       .  A
C353        H359   1.083       .  S
C354        C355   1.407       .  A
C355        C356   1.391       .  A
C355        H360   1.083       .  S
C356        C357   1.401       .  A
C356        H361   1.083       .  S
C357        C358   1.405       .  A
C358        H362   1.083       .  S
C363        C364   1.400       .  A
C363        C368   1.388       .  A
C363        H369   1.083       .  S
C364        C365   1.405       .  A
C365        C366   1.386       .  A
C365        H370   1.083       .  S
C366        C367   1.401       .  A
C366        H371   1.083       .  S
C367        C368   1.406       .  A
C368        H372   1.083       .  S
C373        C374   1.399       .  A
C373        C378   1.400       .  A
C373        H379   1.083       .  S
C374        C375   1.399       .  A
C375        C376   1.387       .  A
C375        H380   1.084       .  S
C376        C377   1.403       .  A
C376        H381   1.083       .  S
C377        C378   1.409       .  A
C378        H382   1.083       .  S
C383        C384   1.405       .  A
C383        C388   1.393   1_545  A
C383        H389   1.084       .  S
C384        C385   1.397       .  A
C385        C386   1.395   1_545  A
C385        H390   1.083       .  S
C386        C387   1.410       .  A
C386        H391   1.083       .  S
C387        C388   1.398       .  A
C388        H392   1.083       .  S
C393        C394   1.406       .  A
C393        C398   1.395       .  A
C393        H399   1.083       .  S
C394        C395   1.399       .  A
C395        C396   1.389       .  A
C395        H400   1.083       .  S
C396        C397   1.405       .  A
C396        H401   1.084       .  S
C397        C398   1.401       .  A
C398        H402   1.083       .  S
C403        C404   1.396   1_554  A
C403        C408   1.390   1_565  A
C403        H409   1.084       .  S
C404        C405   1.408       .  A
C405        C406   1.393   1_565  A
C405        H410   1.083       .  S
C406        C407   1.397       .  A
C406        H411   1.083       .  S
C407        C408   1.407   1_556  A
C408        H412   1.084       .  S
C413        C414   1.403       .  A
C413        C418   1.404       .  A
C413        H419   1.083       .  S
C414        C415   1.412       .  A
C415        C416   1.403       .  A
C415        H420   1.083       .  S
C416        C417   1.403       .  A
C416        H421   1.083       .  S
C417        C418   1.412       .  A
C418        H422   1.083       .  S
C423        C424   1.413       .  A
C423        C428   1.404       .  A
C423        H429   1.083       .  S
C424        C425   1.402       .  A
C425        C426   1.401       .  A
C425        H430   1.083       .  S
C426        C427   1.413       .  A
C426        H431   1.083       .  S
C427        C428   1.403       .  A
C428        H432   1.083       .  S
C433        C434   1.398       .  A
C433        C438   1.400       .  A
C433        H439   1.083       .  S
C434        C435   1.403       .  A
C435        C436   1.395       .  A
C435        H440   1.084       .  S
C436        C437   1.403       .  A
C436        H441   1.083       .  S
C437        C438   1.411       .  A
C438        H442   1.083       .  S
C443        C444   1.409       .  A
C443        C448   1.397       .  A
C443        H449   1.083       .  S
C444        C445   1.400       .  A
C445        C446   1.396       .  A
C445        H450   1.083       .  S
C446        C447   1.410       .  A
C446        H451   1.083       .  S
C447        C448   1.400       .  A
C448        H452   1.083       .  S
C453        C454   1.405       .  A
C453        C458   1.393       .  A
C453        H459   1.084       .  S
C454        C455   1.393       .  A
C455        C456   1.393       .  A
C455        H460   1.083   1_554  S
C456        C457   1.412       .  A
C456        H461   1.083   1_554  S
C457        C458   1.398       .  A
C458        H462   1.083       .  S
C463        C464   1.409       .  A
C463        C468   1.391       .  A
C463        H469   1.083       .  S
C464        C465   1.401   1_556  A
C465        C466   1.392       .  A
C465        H470   1.083       .  S
C466        C467   1.407   1_554  A
C466        H471   1.084       .  S
C467        C468   1.399       .  A
C468        H472   1.083       .  S
C473        C474   1.400       .  A
C473        C478   1.402       .  A
C473        H479   1.083       .  S
C474        C475   1.414       .  A
C475        C476   1.401       .  A
C475        H480   1.083       .  S
C476        C477   1.400       .  A
C476        H481   1.083       .  S
C477        C478   1.414       .  A
C478        H482   1.083       .  S
C483        C484   1.414       .  A
C483        C488   1.398       .  A
C483        H489   1.083       .  S
C484        C485   1.401       .  A
C485        C486   1.404       .  A
C485        H490   1.083       .  S
C486        C487   1.414       .  A
C486        H491   1.083       .  S
C487        C488   1.399       .  A
C488        H492   1.083       .  S
C493        C494   1.405       .  A
C493        C498   1.393       .  A
C493        H499   1.083       .  S
C494        C495   1.406       .  A
C495        C496   1.401       .  A
C495        H500   1.083       .  S
C496        C497   1.408       .  A
C496        H501   1.083       .  S
C497        C498   1.405       .  A
C498        H502   1.083       .  S
C503        C504   1.409       .  A
C503        C508   1.404       .  A
C503        H509   1.083       .  S
C504        C505   1.403       .  A
C505        C506   1.400       .  A
C505        H510   1.083       .  S
C506        C507   1.410       .  A
C506        H511   1.083       .  S
C507        C508   1.404       .  A
C508        H512   1.083       .  S
C513        C514   1.410       .  A
C513        C518   1.401   1_455  A
C513        H519   1.083       .  S
C514        C515   1.401       .  A
C515        C516   1.395   1_455  A
C515        H520   1.083       .  S
C516        C517   1.411       .  A
C516        H521   1.083       .  S
C517        C518   1.403       .  A
C518        H522   1.083       .  S
C523        C524   1.407       .  A
C523        C528   1.403       .  A
C523        H529   1.083       .  S
C524        C525   1.405   1_556  A
C525        C526   1.390       .  A
C525        H530   1.083       .  S
C526        C527   1.405   1_554  A
C526        H531   1.083       .  S
C527        C528   1.407       .  A
C528        H532   1.083       .  S
C533        C534   1.409   1_554  A
C533        C538   1.403       .  A
C533        H539   1.083       .  S
C534        C535   1.410       .  A
C535        C536   1.409       .  A
C535        H540   1.083       .  S
C536        C537   1.410       .  A
C536        H541   1.083       .  S
C537        C538   1.408   1_556  A
C538        H542   1.083       .  S
C543        C544   1.410       .  A
C543        C548   1.400   1_455  A
C543        H549   1.083       .  S
C544        C545   1.401   1_556  A
C545        C546   1.395   1_455  A
C545        H550   1.083       .  S
C546        C547   1.411   1_554  A
C546        H551   1.083       .  S
C547        C548   1.403       .  A
C548        H552   1.083       .  S
C553        C554   1.405       .  A
C553        C558   1.400       .  A
C553        H559   1.083       .  S
C554        C555   1.408       .  A
C555        C556   1.400       .  A
C555        H560   1.083       .  S
C556        C557   1.406       .  A
C556        H561   1.083       .  S
C557        C558   1.408       .  A
C558        H562   1.083       .  S
C563        C564   1.406       .  A
C563        C568   1.398       .  A
C563        H569   1.083       .  S
C564        C565   1.407       .  A
C565        C566   1.401       .  A
C565        H570   1.083       .  S
C566        C567   1.407       .  A
C566        H571   1.083       .  S
C567        C568   1.406       .  A
C568        H572   1.083       .  S
C573        C574   1.401       .  A
C573        C578   1.393       .  A
C573        H579   1.083       .  S
C574        C575   1.411       .  A
C575        C576   1.403       .  A
C575        H580   1.083       .  S
C576        C577   1.404       .  A
C576        H581   1.083       .  S
C577        C578   1.410       .  A
C578        H582   1.083       .  S
C583        C584   1.404       .  A
C583        C588   1.403       .  A
C583        H589   1.083       .  S
C584        C585   1.403       .  A
C585        C586   1.401       .  A
C585        H590   1.083       .  S
C586        C587   1.407       .  A
C586        H591   1.083       .  S
C587        C588   1.406       .  A
C588        H592   1.083       .  S
C593        C594   1.403       .  A
C593        C598   1.409   1_545  A
C593        H599   1.083       .  S
C594        C595   1.406       .  A
C595        C596   1.394   1_545  A
C595        H600   1.084       .  S
C596        C597   1.404       .  A
C596        H601   1.083       .  S
C597        C598   1.414       .  A
C598        H602   1.083       .  S
C603        C604   1.396       .  A
C603        C608   1.397       .  A
C603        H609   1.084       .  S
C604        C605   1.416       .  A
C605        C606   1.408       .  A
C605        H610   1.083       .  S
C606        C607   1.400       .  A
C606        H611   1.083       .  S
C607        C608   1.416       .  A
C608        H612   1.083       .  S
C613        C614   1.416       .  A
C613        C618   1.406       .  A
C613        H619   1.083       .  S
C614        C615   1.400       .  A
C615        C616   1.403       .  A
C615        H620   1.083       .  S
C616        C617   1.415       .  A
C616        H621   1.083       .  S
C617        C618   1.401       .  A
C618        H622   1.083       .  S
C623        C624   1.416       .  A
C623        C628   1.406       .  A
C623        H629   1.083       .  S
C624        C625   1.402       .  A
C625        C626   1.407       .  A
C625        H630   1.083       .  S
C626        C627   1.416       .  A
C626        H631   1.083       .  S
C627        C628   1.402       .  A
C628        H632   1.083       .  S
C633        C634   1.411       .  A
C633        C638   1.405       .  A
C633        H639   1.083       .  S
C634        C635   1.400   1_554  A
C635        C636   1.395       .  A
C635        H640   1.083       .  S
C636        C637   1.412       .  A
C636        H641   1.083       .  S
C637        C638   1.405   1_556  A
C638        H642   1.083       .  S
C643        C644   1.404       .  A
C643        C648   1.399       .  A
C643        H649   1.084       .  S
C644        C645   1.400       .  A
C645        C646   1.398       .  A
C645        H650   1.083       .  S
C646        C647   1.409       .  A
C646        H651   1.083       .  S
C647        C648   1.405       .  A
C648        H652   1.083       .  S
C653        C654   1.405       .  A
C653        C658   1.412   1_545  A
C653        H659   1.083       .  S
C654        C655   1.407   1_554  A
C655        C656   1.398   1_545  A
C655        H660   1.084       .  S
C656        C657   1.405       .  A
C656        H661   1.083       .  S
C657        C658   1.415   1_556  A
C658        H662   1.083       .  S
C663        C664   1.408       .  A
C663        C668   1.398       .  A
C663        H669   1.084   1_556  S
C664        C665   1.404       .  A
C665        C666   1.407       .  A
C665        H670   1.083       .  S
C666        C667   1.409       .  A
C666        H671   1.083       .  S
C667        C668   1.400       .  A
C668        H672   1.083   1_556  S
