geometry optimzed in LAMMPS
_audit_creation_date              2020-12-01 
_audit_creation_method            'lammps2cif' 
_symmetry_space_group_name_H-M    'P1' 
_symmetry_Int_Tables_number       1 
_symmetry_cell_setting            triclinic 
loop_ 
_symmetry_equiv_pos_as_xyz 
  x,y,z 
_cell_length_a                    39.24401953 
_cell_length_b                    38.88214038733816 
_cell_length_c                    38.72424284058598 
_cell_angle_alpha                 89.2940945536463 
_cell_angle_beta                  90.04797919404226 
_cell_angle_gamma                 89.38346199682704 
loop_ 
_atom_site_label 
_atom_site_type_symbol 
_atom_site_fract_x 
_atom_site_fract_y 
_atom_site_fract_z 
_atom_site_charge 
N1          N  0.57774547  0.54022598  0.94099164    -0.06000
N2          N  0.59651442  0.54483319  0.91312283    -0.58200
N3          N  0.55393164  0.55814591  0.02195022    -0.05700
N4          N  0.55651035  0.57631836  0.05023933    -0.60300
N5          N  0.57820231  0.53466939  0.02061780    -0.05300
N6          N  0.59806028  0.53644758  0.04807012    -0.58100
N7          N  0.55388749  0.56414074  0.94274923    -0.05000
N8          N  0.55588526  0.58557183  0.91620330    -0.60600
C9          C  0.58262399  0.57326592  0.89810233     0.96100
C10         C  0.58406084  0.56254712  0.06618879     0.95900
N11         N  0.45112732  0.53553568  0.02078600    -0.06200
N12         N  0.43082356  0.53788504  0.04789742    -0.58700
N13         N  0.47497487  0.56547637  0.94325682    -0.04400
N14         N  0.47105156  0.58954640  0.91935398    -0.60000
N15         N  0.45110650  0.54215704  0.94089132    -0.06300
N16         N  0.43023645  0.55000635  0.91505071    -0.59000
N17         N  0.47491908  0.55903272  0.02213659    -0.04000
N18         N  0.47135257  0.57790859  0.04997624    -0.60100
Mn19       Mn  0.51451959  0.56277943  0.98261495     1.18400
C20         C  0.44378834  0.56446642  0.06577817     0.98200
C21         C  0.44316763  0.57964408  0.90195556     0.98900
N22         N  0.57888154  0.45493751  0.01616881    -0.06300
N23         N  0.59748250  0.45144450  0.04439961    -0.62600
N24         N  0.55585521  0.43633355  0.93452918    -0.05100
N25         N  0.55955465  0.41856964  0.90583611    -0.63300
N26         N  0.57928948  0.46015942  0.93639478    -0.05800
N27         N  0.59941178  0.45914356  0.90916254    -0.62900
N28         N  0.55547114  0.43102089  0.01500576    -0.04700
N29         N  0.55774811  0.41067526  0.04257757    -0.63500
Mn30       Mn  0.57992152  0.49745183  0.97848774     1.10700
C31         C  0.58418131  0.42368982  0.06055280     0.99400
C32         C  0.58693312  0.43307216  0.89039642     0.99500
N33         N  0.45167191  0.46073973  0.93596728    -0.05800
N34         N  0.42947440  0.45687363  0.91071955    -0.61200
N35         N  0.47567772  0.43117352  0.01370139    -0.05100
N36         N  0.47168129  0.40813614  0.03858259    -0.57900
N37         N  0.45160231  0.45494466  0.01507000    -0.06400
N38         N  0.43063418  0.44850676  0.04093233    -0.60700
N39         N  0.47553272  0.43669736  0.93468593    -0.05400
N40         N  0.47003968  0.41601581  0.90853827    -0.57900
Mn41       Mn  0.45002145  0.49835012  0.97805312     1.20200
Mn42       Mn  0.51574718  0.43244274  0.97431954     1.10100
Cl43       Cl  0.51498912  0.49770106  0.97826483    -0.85900
C44         C  0.44134410  0.42900318  0.89379768     0.96400
C45         C  0.44352532  0.41924562  0.05525335     0.96200
N46         N  0.49858539  0.96105568  0.41295018    -0.06000
N47         N  0.49536558  0.93324732  0.39412932    -0.58200
N48         N  0.47467387  0.04159951  0.43363157    -0.05700
N49         N  0.45449285  0.06873034  0.42964067    -0.60300
N50         N  0.49763373  0.04064617  0.40893620    -0.05300
N51         N  0.49356324  0.06714079  0.38758831    -0.58100
N52         N  0.47515653  0.96197559  0.43719835    -0.05000
N53         N  0.45529815  0.93482031  0.43522595    -0.60600
C54         C  0.46826690  0.91721370  0.40821100     0.96100
C55         C  0.46653291  0.08435040  0.40081223     0.95900
N56         N  0.50127243  0.04454930  0.53781663    -0.06200
N57         N  0.49717827  0.07089642  0.55856353    -0.58700
N58         N  0.47700914  0.96512840  0.51814226    -0.04400
N59         N  0.45525613  0.94036779  0.52505875    -0.60000
N60         N  0.50129831  0.96559020  0.54156641    -0.06300
N61         N  0.49651173  0.94115288  0.56501511    -0.59000
N62         N  0.47687963  0.04411310  0.51450762    -0.04000
N63         N  0.45555348  0.07015769  0.51897817    -0.60100
Mn64       Mn  0.47465479  0.00321058  0.47580363     1.18400
C65         C  0.46867267  0.08663330  0.54644620     0.98200
C66         C  0.46776971  0.92561870  0.55427197     0.98900
N67         N  0.57715851  0.04020346  0.40668740    -0.06300
N68         N  0.58014028  0.06577499  0.38425412    -0.62600
N69         N  0.60287727  0.96249730  0.43365809    -0.05100
N70         N  0.62433782  0.93647425  0.42991535    -0.63300
N71         N  0.57827336  0.96114200  0.41065091    -0.05800
N72         N  0.58234496  0.93401497  0.39084503    -0.62900
N73         N  0.60138631  0.04139274  0.43010872    -0.04700
N74         N  0.62140087  0.06783497  0.42416815    -0.63500
Mn75       Mn  0.53779273  0.00066465  0.40853540     1.10700
C76         C  0.60784496  0.08266406  0.39546591     0.99400
C77         C  0.61118406  0.91897256  0.40318734     0.99500
N78         N  0.58135063  0.96499187  0.53847873    -0.05800
N79         N  0.58423338  0.93713342  0.55810611    -0.61200
N80         N  0.60353432  0.04422624  0.51084412    -0.05100
N81         N  0.62211197  0.07231927  0.51164240    -0.57900
N82         N  0.58062540  0.04459442  0.53559944    -0.06400
N83         N  0.58310336  0.07295030  0.55375984    -0.60700
N84         N  0.60458334  0.96476396  0.51401678    -0.05400
N85         N  0.62378799  0.93680896  0.51647958    -0.57900
Mn86       Mn  0.54133031  0.00486477  0.53970169     1.20200
Mn87       Mn  0.60442290  0.00331693  0.47225086     1.10100
Cl88       Cl  0.53953162  0.00298295  0.47408526    -0.85900
C89         C  0.61091318  0.91997906  0.54414493     0.96400
C90         C  0.60916615  0.08986534  0.53863541     0.96200
N91         N  0.98951348  0.54840419  0.42276720    -0.06000
N92         N  0.96434291  0.55381708  0.40072264    -0.58200
N93         N  0.06693372  0.56756428  0.45090466    -0.05700
N94         N  0.09261335  0.58879491  0.44706122    -0.60300
N95         N  0.06781788  0.54358952  0.42724476    -0.05300
N96         N  0.09438581  0.54804114  0.40671814    -0.58100
N97         N  0.98924734  0.57202455  0.44674706    -0.05000
N98         N  0.96398549  0.59408592  0.44161937    -0.60600
C99         C  0.94879788  0.58240567  0.41284503     0.96100
C100        C  0.10955275  0.57634077  0.41955009     0.95900
N101        N  0.06100629  0.54354447  0.55561253    -0.06200
N102        N  0.08610184  0.54717961  0.57803732    -0.58700
N103        N  0.98488928  0.57225895  0.52692402    -0.04400
N104        N  0.95847734  0.59348287  0.52782085    -0.60000
N105        N  0.98267127  0.54879052  0.55149555    -0.06300
N106        N  0.95470269  0.55345518  0.56969018    -0.59000
N107        N  0.06281598  0.56725174  0.53118177    -0.04000
N108        N  0.08895380  0.58747167  0.53632808    -0.60100
Mn109      Mn  0.02600939  0.57085419  0.48899814     1.18400
C110        C  0.10325470  0.57468079  0.56550463     0.98200
C111        C  0.94004185  0.58144952  0.55469935     0.98900
N112        N  0.06239111  0.46223935  0.42859519    -0.06300
N113        N  0.08876518  0.45549228  0.40865980    -0.62600
N114        N  0.98075001  0.44523762  0.44812571    -0.05100
N115        N  0.95215102  0.42821546  0.44366418    -0.63300
N116        N  0.98432598  0.46867955  0.42364314    -0.05800
N117        N  0.95837332  0.46801884  0.40196810    -0.62900
N118        N  0.05934698  0.43839084  0.45278374    -0.04700
N119        N  0.08380326  0.41498617  0.44992438    -0.63500
Mn120      Mn  0.02633719  0.50559378  0.42427234     1.10700
C121        C  0.10185612  0.42603626  0.42228065     0.99400
C122        C  0.93857863  0.44265950  0.41471803     0.99500
N123        N  0.97711150  0.46915377  0.55293613    -0.05800
N124        N  0.94906537  0.46837713  0.57172866    -0.61200
N125        N  0.05468712  0.43858413  0.53385351    -0.05100
N126        N  0.07822836  0.41496072  0.54070429    -0.57900
N127        N  0.05515700  0.46274412  0.55732943    -0.06400
N128        N  0.07886497  0.45610553  0.58068175    -0.60700
N129        N  0.97632484  0.44538287  0.52907619    -0.05400
N130        N  0.94768518  0.42792993  0.53113263    -0.57900
Mn131      Mn  0.01914326  0.50606333  0.55566353     1.20200
Mn132      Mn  0.01772240  0.44051188  0.49092656     1.10100
Cl133      Cl  0.02247355  0.50568523  0.48996053    -0.85900
C134        C  0.93101948  0.44251202  0.55791237     0.96400
C135        C  0.09301666  0.42629879  0.56996450     0.96200
C136        C  0.72497127  0.35443058  0.32572852     0.80300
N137        N  0.70951595  0.36933719  0.29777247    -0.78000
C138        C  0.68359196  0.35298033  0.28152139     0.82700
N139        N  0.67386822  0.32135653  0.29292138    -0.78000
C140        C  0.68952556  0.30629631  0.32055405     0.82800
N141        N  0.71478715  0.32305314  0.33688119    -0.79700
C142        C  0.74278680  0.66731913  0.30120672     0.80300
N143        N  0.72696864  0.64987514  0.27594540    -0.78000
C144        C  0.69588551  0.66002581  0.26440669     0.82700
N145        N  0.68050476  0.68816433  0.27815004    -0.78000
C146        C  0.69633420  0.70605604  0.30333734     0.82800
N147        N  0.72746567  0.69546398  0.31487798    -0.79700
C148        C  0.66023292  0.36134194  0.66114188     0.80300
N149        N  0.68908062  0.37556747  0.64796973    -0.78000
C150        C  0.70361602  0.36241118  0.61894683     0.82700
N151        N  0.68944849  0.33470367  0.60366054    -0.78000
C152        C  0.66082823  0.32036420  0.61680715     0.82800
N153        N  0.64647955  0.33379580  0.64546791    -0.79700
C154        C  0.36252423  0.70830086  0.32421863     0.80300
N155        N  0.37740503  0.69494242  0.29557028    -0.78000
C156        C  0.36402499  0.66692958  0.28019543     0.82700
N157        N  0.33581881  0.65216558  0.29379753    -0.78000
C158        C  0.32070413  0.66528346  0.32229158     0.82800
N159        N  0.33399418  0.69354600  0.33733362    -0.79700
C160        C  0.34051109  0.73737416  0.65950143     0.80300
N161        N  0.31129756  0.72500594  0.64565548    -0.78000
C162        C  0.29533130  0.69796136  0.66069306     0.82700
N163        N  0.30876023  0.68326140  0.68949492    -0.78000
C164        C  0.33774090  0.69523468  0.70368402     0.82800
N165        N  0.35378049  0.72239722  0.68863106    -0.79700
C166        C  0.33650513  0.30666787  0.70355913     0.80300
N167        N  0.30612073  0.31928528  0.69189044    -0.78000
C168        C  0.29079492  0.30498860  0.66412854     0.82700
N169        N  0.30615060  0.27827872  0.64791749    -0.78000
C170        C  0.33649123  0.26564649  0.65930223     0.82800
N171        N  0.35156957  0.27991433  0.68712920    -0.79700
C172        C  0.67306896  0.65141794  0.67789706     0.80300
N173        N  0.70236429  0.63829925  0.66493725    -0.78000
C174        C  0.71705869  0.65266613  0.63676049     0.82700
N175        N  0.70226404  0.68055025  0.62134951    -0.78000
C176        C  0.67275287  0.69386172  0.63406784     0.82800
N177        N  0.65833192  0.67936991  0.66253175    -0.79700
C178        C  0.34997226  0.29056728  0.31423505     0.80300
N179        N  0.32153148  0.30448997  0.32878632    -0.78000
C180        C  0.30421308  0.33032064  0.31232655     0.82700
N181        N  0.31538541  0.34202407  0.28131757    -0.78000
C182        C  0.34355928  0.32831686  0.26653080     0.82800
N183        N  0.36087875  0.30256139  0.28305764    -0.79700
C184        C  0.21039814  0.33497008  0.61615559     0.16000
C185        C  0.18412430  0.34036388  0.59221613    -0.33000
C186        C  0.16258370  0.36879496  0.59706389     0.20400
C187        C  0.16673763  0.39072841  0.62471221     0.02600
C188        C  0.19286826  0.38515386  0.64885845    -0.22700
C189        C  0.21466266  0.35688552  0.64379166     0.11800
S190        S  0.24013829  0.30292318  0.61371306    -0.06400
C191        C  0.25880821  0.31934276  0.65015997    -0.09900
C192        C  0.24239687  0.34795489  0.66354876    -0.26500
S193        S  0.13849908  0.42433833  0.62539727    -0.03700
C194        C  0.12116616  0.40870631  0.58794177    -0.17100
C195        C  0.13636063  0.37893820  0.57589280    -0.15100
H196        H  0.18099490  0.32350415  0.57041773     0.20200
H197        H  0.19642871  0.40241717  0.67025495     0.16300
H198        H  0.25076498  0.36195044  0.68597019     0.18800
H199        H  0.12896369  0.36574495  0.55262829     0.12100
C200        C  0.17925135  0.60722859  0.61705228     0.16000
C201        C  0.20554337  0.61265625  0.64069667    -0.33000
C202        C  0.22451249  0.64277533  0.63676365     0.20400
C203        C  0.21777885  0.66650634  0.61054628     0.02600
C204        C  0.19145843  0.66110516  0.58691933    -0.22700
C205        C  0.17252246  0.63095603  0.59081683     0.11800
S206        S  0.15297622  0.57247523  0.61750482    -0.06400
C207        C  0.13277907  0.59026912  0.58202799    -0.09900
C208        C  0.14597331  0.62124124  0.57052807    -0.26500
S209        S  0.24439213  0.70098050  0.60979484    -0.03700
C210        C  0.26486858  0.68303673  0.64508938    -0.17100
C211        C  0.25134791  0.65223472  0.65677773    -0.15100
H212        H  0.21102209  0.59423209  0.66118041     0.20200
H213        H  0.18607906  0.67945564  0.56634681     0.16300
H214        H  0.13633676  0.63610842  0.54873712     0.18800
H215        H  0.26112024  0.63711193  0.67833743     0.12100
C216        C  0.18837818  0.62749015  0.39334213     0.16000
C217        C  0.21475770  0.65134808  0.39048772    -0.33000
C218        C  0.24120216  0.64403167  0.36733807     0.20400
C219        C  0.24128969  0.61436924  0.34779843     0.02600
C220        C  0.21488383  0.59053848  0.35061646    -0.22700
C221        C  0.18847459  0.59780173  0.37381850     0.11800
S222        S  0.15447434  0.63129228  0.42051967    -0.06400
C223        C  0.14036993  0.59238960  0.40557226    -0.09900
C224        C  0.16079651  0.57758501  0.38058173    -0.26500
S225        S  0.27535654  0.61041655  0.32083393    -0.03700
C226        C  0.28966735  0.64919440  0.33595104    -0.17100
C227        C  0.26903298  0.66407478  0.36079782    -0.15100
H228        H  0.21473299  0.67450467  0.40572851     0.20200
H229        H  0.21494835  0.56734417  0.33542416     0.16300
H230        H  0.15600303  0.55312516  0.36852919     0.18800
H231        H  0.27381755  0.68847766  0.37297651     0.12100
C232        C  0.22384428  0.37919602  0.33969577     0.16000
C233        C  0.19620071  0.40195678  0.34211671    -0.33000
C234        C  0.17486986  0.39850709  0.37080292     0.20400
C235        C  0.18048416  0.37334683  0.39593535     0.02600
C236        C  0.20825234  0.35047359  0.39350151    -0.22700
C237        C  0.22984732  0.35411736  0.36483359     0.11800
S238        S  0.25263363  0.37966075  0.30694489    -0.06400
C239        C  0.27333496  0.34577308  0.32725738    -0.09900
C240        C  0.25839756  0.33477034  0.35784841    -0.26500
S241        S  0.15139139  0.37374572  0.42875946    -0.03700
C242        C  0.13192368  0.40835390  0.40837767    -0.17100
C243        C  0.14712609  0.41867576  0.37782967    -0.15100
H244        H  0.19164325  0.42163506  0.32260650     0.20200
H245        H  0.21291102  0.33091428  0.41309911     0.16300
H246        H  0.26783985  0.31383193  0.37399164     0.18800
H247        H  0.13840179  0.43990756  0.36165570     0.12100
C248        C  0.80300743  0.61037957  0.61827077     0.16000
C249        C  0.83283691  0.59055533  0.61934161    -0.33000
C250        C  0.85779026  0.59787396  0.59473302     0.20400
C251        C  0.85335704  0.62366817  0.56999754     0.02600
C252        C  0.82339335  0.64350381  0.56887278    -0.22700
C253        C  0.79839711  0.63624222  0.59363627     0.11800
S254        S  0.77016931  0.60579821  0.64640769    -0.06400
C255        C  0.74990430  0.63918160  0.62489207    -0.09900
C256        C  0.76779049  0.65293203  0.59727571    -0.26500
S257        S  0.88685827  0.62825347  0.54237430    -0.03700
C258        C  0.90678209  0.59513989  0.56461048    -0.17100
C259        C  0.88842025  0.58139869  0.59176205    -0.15100
H260        H  0.83649825  0.57043496  0.63858699     0.20200
H261        H  0.81979068  0.66371044  0.54971217     0.16300
H262        H  0.75913689  0.67422402  0.58114652     0.18800
H263        H  0.89691487  0.56031777  0.60826393     0.12100
C264        C  0.84219897  0.42707466  0.59617520     0.16000
C265        C  0.81199719  0.42741154  0.61555444    -0.33000
C266        C  0.78600202  0.40503230  0.60568182     0.20400
C267        C  0.78987598  0.38348670  0.57764381     0.02600
C268        C  0.81998373  0.38321288  0.55824519    -0.22700
C269        C  0.84602145  0.40536099  0.56825712     0.11800
S270        S  0.87683807  0.45206129  0.60398454    -0.06400
C271        C  0.89665363  0.43289640  0.56937074    -0.09900
C272        C  0.87725060  0.40852607  0.55281531    -0.26500
S273        S  0.75598403  0.35752358  0.57038390    -0.03700
C274        C  0.73633496  0.37548416  0.60576758    -0.17100
C275        C  0.75520181  0.40067633  0.62188317    -0.15100
H276        H  0.80901567  0.44413885  0.63751077     0.20200
H277        H  0.82310646  0.36622213  0.53650892     0.16300
H278        H  0.88545092  0.39409035  0.53051497     0.18800
H279        H  0.74727916  0.41431184  0.64477857     0.12100
C280        C  0.85577966  0.42540976  0.36544224     0.16000
C281        C  0.82930861  0.42350798  0.34117596    -0.33000
C282        C  0.80188695  0.40192232  0.34906300     0.20400
C283        C  0.80078135  0.38340236  0.37989268     0.02600
C284        C  0.82697000  0.38565769  0.40430923    -0.22700
C285        C  0.85455855  0.40680972  0.39621134     0.11800
S286        S  0.89193105  0.44895419  0.36022977    -0.06400
C287        C  0.90562628  0.43319709  0.39970895    -0.09900
C288        C  0.88310598  0.41116209  0.41599554    -0.26500
S289        S  0.76671172  0.35693047  0.38378685    -0.03700
C290        C  0.75376522  0.37066395  0.34332017    -0.17100
C291        C  0.77466472  0.39500521  0.32803555    -0.15100
H292        H  0.83040441  0.43760333  0.31694798     0.20200
H293        H  0.82630452  0.37086736  0.42814290     0.16300
H294        H  0.88745221  0.39888013  0.44086935     0.18800
H295        H  0.77105569  0.40574240  0.30235610     0.12100
C296        C  0.86968105  0.63179784  0.38276620     0.16000
C297        C  0.84184227  0.65424920  0.37894071    -0.33000
C298        C  0.82035983  0.64932278  0.35062971     0.20400
C299        C  0.82638320  0.62332991  0.32709293     0.02600
C300        C  0.85432122  0.60101841  0.33078938    -0.22700
C301        C  0.87567538  0.60582707  0.35919102     0.11800
S302        S  0.89833144  0.63305941  0.41573822    -0.06400
C303        C  0.91850007  0.59829879  0.39743088    -0.09900
C304        C  0.90372454  0.58642097  0.36752493    -0.26500
S305        S  0.79667662  0.62069543  0.29529547    -0.03700
C306        C  0.77575393  0.65481592  0.31409310    -0.17100
C307        C  0.79137962  0.66770103  0.34315355    -0.15100
H308        H  0.83691814  0.67437778  0.39741824     0.20200
H309        H  0.85894607  0.58055137  0.31261408     0.16300
H310        H  0.91294038  0.56474121  0.35277859     0.18800
H311        H  0.78156047  0.68866214  0.35853555     0.12100
C312        C  0.62318111  0.23257683  0.59698488     0.16000
C313        C  0.60660679  0.20095471  0.59897055    -0.33000
C314        C  0.61674163  0.17547247  0.57581481     0.20400
C315        C  0.64199174  0.18124770  0.55144189     0.02600
C316        C  0.65851543  0.21299419  0.54936381    -0.22700
C317        C  0.64862036  0.23841149  0.57282950     0.11800
S318        S  0.61582455  0.26589898  0.62415742    -0.06400
C319        C  0.64787043  0.28783408  0.60332138    -0.09900
C320        C  0.66280804  0.27025607  0.57620204    -0.26500
S321        S  0.65030847  0.14694084  0.52554455    -0.03700
C322        C  0.61948118  0.12471142  0.54792028    -0.17100
C323        C  0.60380650  0.14303992  0.57399273    -0.15100
H324        H  0.58699655  0.19625358  0.61805681     0.20200
H325        H  0.67848110  0.21751681  0.53062328     0.16300
H326        H  0.68386486  0.27962123  0.56080989     0.18800
H327        H  0.58365726  0.13332649  0.59040291     0.12100
C328        C  0.37303860  0.19619438  0.60026471     0.16000
C329        C  0.37953202  0.17245109  0.57413660    -0.33000
C330        C  0.41069597  0.15455810  0.57528877     0.20400
C331        C  0.43444030  0.16021064  0.60112223     0.02600
C332        C  0.42804541  0.18410478  0.62706908    -0.22700
C333        C  0.39680072  0.20176430  0.62608006     0.11800
S334        S  0.33670439  0.22033798  0.60371108    -0.06400
C335        C  0.35383415  0.23815192  0.64028404    -0.09900
C336        C  0.38588981  0.22573860  0.64917508    -0.26500
S337        S  0.47005449  0.13491936  0.59890080    -0.03700
C338        C  0.45255012  0.11621639  0.56307308    -0.17100
C339        C  0.42110863  0.12943124  0.55313874    -0.15100
H340        H  0.36096921  0.16783710  0.55404659     0.20200
H341        H  0.44642967  0.18841778  0.64739868     0.16300
H342        H  0.40064810  0.23413249  0.67111377     0.18800
H343        H  0.40617929  0.12032498  0.53162696     0.12100
C344        C  0.38586660  0.21405084  0.36660664     0.16000
C345        C  0.39102897  0.18654734  0.38975153    -0.33000
C346        C  0.41744727  0.16320830  0.38253035     0.20400
C347        C  0.43821477  0.16727815  0.35383570     0.02600
C348        C  0.43327458  0.19502186  0.33085145    -0.22700
C349        C  0.40648953  0.21809638  0.33780891     0.11800
S350        S  0.35388922  0.24390923  0.36974950    -0.06400
C351        C  0.36806005  0.26180109  0.33154034    -0.09900
C352        C  0.39650328  0.24560173  0.31765969    -0.26500
S353        S  0.46837107  0.13562962  0.34933030    -0.03700
C354        C  0.45256535  0.11664978  0.38633267    -0.17100
C355        C  0.42559787  0.13422195  0.40129299    -0.15100
H356        H  0.37470171  0.18307857  0.41203848     0.20200
H357        H  0.44914614  0.19808985  0.30817706     0.16300
H358        H  0.40865489  0.25295027  0.29360956     0.18800
H359        H  0.41246543  0.12606985  0.42453784     0.12100
C360        C  0.62976823  0.16542793  0.34678757     0.16000
C361        C  0.63016643  0.19451440  0.32511900    -0.33000
C362        C  0.65295353  0.22068263  0.33332378     0.20400
C363        C  0.67475270  0.21773371  0.36145793     0.02600
C364        C  0.67471773  0.18847719  0.38278606    -0.22700
C365        C  0.65158760  0.16261282  0.37492253     0.11800
S366        S  0.60241916  0.13194383  0.34274334    -0.06400
C367        C  0.62048910  0.11427862  0.37947187    -0.09900
C368        C  0.64651640  0.13315954  0.39368723    -0.26500
S369        S  0.69968743  0.25258913  0.36783200    -0.03700
C370        C  0.68033787  0.27162058  0.33240838    -0.17100
C371        C  0.65611412  0.25160972  0.31641463    -0.15100
H372        H  0.61290092  0.19702145  0.30339183     0.20200
H373        H  0.69140355  0.18633556  0.40501091     0.16300
H374        H  0.66028196  0.12621499  0.41704249     0.18800
H375        H  0.64140067  0.25938261  0.29391578     0.12100
C376        C  0.37704305  0.81018390  0.60361433     0.16000
C377        C  0.38357943  0.83485599  0.57793470    -0.33000
C378        C  0.41203554  0.85577251  0.58228347     0.20400
C379        C  0.43318646  0.85231419  0.61085933     0.02600
C380        C  0.42668056  0.82751724  0.63655677    -0.22700
C381        C  0.39811132  0.80659044  0.63224079     0.11800
S382        S  0.34364385  0.78259735  0.60307659    -0.06400
C383        C  0.35806580  0.76590334  0.64191100    -0.09900
C384        C  0.38737206  0.78110252  0.65435068    -0.26500
S385        S  0.46632676  0.88045824  0.61125131    -0.03700
C386        C  0.45139020  0.89693498  0.57255015    -0.17100
C387        C  0.42234697  0.88133204  0.56022851    -0.15100
H388        H  0.36713854  0.83769983  0.55559333     0.20200
H389        H  0.44307869  0.82472537  0.65893379     0.16300
H390        H  0.40010388  0.77392476  0.67823311     0.18800
H391        H  0.40940048  0.88838132  0.53642687     0.12100
C392        C  0.64747043  0.83012601  0.56185917     0.16000
C393        C  0.66632834  0.79939801  0.56229431    -0.33000
C394        C  0.65671128  0.77393500  0.58611713     0.20400
C395        C  0.62922308  0.77856825  0.60813764     0.02600
C396        C  0.61012022  0.80912414  0.60741338    -0.22700
C397        C  0.62010371  0.83481895  0.58403585     0.11800
S398        S  0.65567535  0.86456726  0.53564503    -0.06400
C399        C  0.62203380  0.88549770  0.55501289    -0.09900
C400        C  0.60541223  0.86664438  0.58025506    -0.26500
S401        S  0.62287631  0.74545689  0.63652288    -0.03700
C402        C  0.65807889  0.72547095  0.61901263    -0.17100
C403        C  0.67322270  0.74332817  0.59203832    -0.15100
H404        H  0.68800806  0.79579560  0.54535951     0.20200
H405        H  0.58891570  0.81302979  0.62489199     0.16300
H406        H  0.58359063  0.87564313  0.59484914     0.18800
H407        H  0.69597510  0.73507841  0.57849586     0.12100
C408        C  0.64511946  0.78514258  0.33211110     0.16000
C409        C  0.62088029  0.81132075  0.33700821    -0.33000
C410        C  0.62967500  0.83832394  0.35882391     0.20400
C411        C  0.66111321  0.83915733  0.37519667     0.02600
C412        C  0.68534474  0.81304658  0.37024023    -0.22700
C413        C  0.67659014  0.78612878  0.34836817     0.11800
S414        S  0.63964053  0.75035337  0.30632893    -0.06400
C415        C  0.68025677  0.73711799  0.31751086    -0.09900
C416        C  0.69681828  0.75860139  0.34017318    -0.26500
S417        S  0.66675251  0.87379775  0.40105305    -0.03700
C418        C  0.62641738  0.88739937  0.38951341    -0.17100
C419        C  0.60966135  0.86613653  0.36682462    -0.15100
H420        H  0.59627501  0.81071774  0.32430314     0.20200
H421        H  0.70996652  0.81367291  0.38290280     0.16300
H422        H  0.72248825  0.75453049  0.34984133     0.18800
H423        H  0.58409893  0.87061036  0.35702285     0.12100
C424        C  0.38801085  0.79027321  0.37173621     0.16000
C425        C  0.38925053  0.82011904  0.39164213    -0.33000
C426        C  0.41854509  0.84034657  0.38905663     0.20400
C427        C  0.44548878  0.83112315  0.36779375     0.02600
C428        C  0.44436516  0.80116874  0.34814788    -0.22700
C429        C  0.41496070  0.78116315  0.35046198     0.11800
S430        S  0.35438239  0.76281816  0.37035244    -0.06400
C431        C  0.37673247  0.73904955  0.34047807    -0.09900
C432        C  0.40863545  0.75183131  0.33244260    -0.26500
S433        S  0.47825173  0.85955013  0.36727810    -0.03700
C434        C  0.45540921  0.88422718  0.39591388    -0.17100
C435        C  0.42421917  0.87078639  0.40552307    -0.15100
H436        H  0.36813150  0.82749133  0.40804909     0.20200
H437        H  0.46525997  0.79408090  0.33132665     0.16300
H438        H  0.42617465  0.74043089  0.31416483     0.18800
H439        H  0.40641613  0.88295490  0.42302795     0.12100
C440        C  0.60531322  0.38307517  0.14912839     0.16000
C441        C  0.60819363  0.36222647  0.17883174    -0.33000
C442        C  0.63246727  0.37132245  0.20368023     0.20400
C443        C  0.65245282  0.40027280  0.19955151     0.02600
C444        C  0.64926920  0.42133163  0.17009669    -0.22700
C445        C  0.62557752  0.41181998  0.14492190     0.11800
S446        S  0.57861654  0.37566785  0.11511619    -0.06400
C447        C  0.59535515  0.41140105  0.09489803    -0.09900
C448        C  0.61997122  0.42814434  0.11388655    -0.26500
S449        S  0.68153254  0.40599277  0.23176096    -0.03700
C450        C  0.66723363  0.36851635  0.25067970    -0.17100
C451        C  0.64069647  0.35309927  0.23309556    -0.15100
H452        H  0.59284239  0.33943099  0.18201391     0.20200
H453        H  0.66522083  0.44365196  0.16651557     0.16300
H454        H  0.63320025  0.45103264  0.10535923     0.18800
H455        H  0.62881025  0.32919787  0.24079484     0.12100
C456        C  0.60732559  0.60531848  0.15057791     0.16000
C457        C  0.60926085  0.62712822  0.17889083    -0.33000
C458        C  0.63950223  0.62651292  0.19796933     0.20400
C459        C  0.66634642  0.60459480  0.18972574     0.02600
C460        C  0.66419107  0.58231788  0.16175300    -0.22700
C461        C  0.63419547  0.58345139  0.14222812     0.11800
S462        S  0.57402069  0.60460050  0.12254916    -0.06400
C463        C  0.59673362  0.57489955  0.09912983    -0.09900
C464        C  0.62809340  0.56555591  0.11274629    -0.26500
S465        S  0.70139347  0.60880539  0.21508756    -0.03700
C466        C  0.67978125  0.64078152  0.23668488    -0.17100
C467        C  0.64703060  0.64734551  0.22500977    -0.15100
H468        H  0.58854748  0.64462929  0.18507577     0.20200
H469        H  0.68533818  0.56562691  0.15488874     0.16300
H470        H  0.64591346  0.54772444  0.10103188     0.18800
H471        H  0.62993043  0.66673411  0.23527500     0.12100
C472        C  0.39954427  0.58867198  0.15037150     0.16000
C473        C  0.37844552  0.59107688  0.17938837    -0.33000
C474        C  0.38446662  0.61789776  0.20239062     0.20400
C475        C  0.41034037  0.64133587  0.19687569     0.02600
C476        C  0.43151013  0.63889915  0.16787383    -0.22700
C477        C  0.42546738  0.61206823  0.14484454     0.11800
S478        S  0.39616110  0.55817579  0.11922022    -0.06400
C479        C  0.42998695  0.57719962  0.09851707    -0.09900
C480        C  0.44310342  0.60553435  0.11512936    -0.26500
S481        S  0.41318615  0.67217499  0.22776865    -0.03700
C482        C  0.37914845  0.65322208  0.24834168    -0.17100
C483        C  0.36651017  0.62458021  0.23184523    -0.15100
H484        H  0.35812243  0.57289470  0.18379280     0.20200
H485        H  0.45173222  0.65717130  0.16338910     0.16300
H486        H  0.46431599  0.62066614  0.10584868     0.18800
H487        H  0.34512466  0.60950842  0.24081279     0.12100
C488        C  0.41763951  0.36685349  0.13484584     0.16000
C489        C  0.41613046  0.34426720  0.16320912    -0.33000
C490        C  0.38883272  0.34828957  0.18611633     0.20400
C491        C  0.36384638  0.37329874  0.18071110     0.02600
C492        C  0.36516091  0.39565610  0.15217329    -0.22700
C493        C  0.39276368  0.39201663  0.12960850     0.11800
S494        S  0.44953670  0.36721647  0.10503579    -0.06400
C495        C  0.42929729  0.40184414  0.08560318    -0.09900
C496        C  0.39932940  0.41223810  0.10130407    -0.26500
S497        S  0.33348503  0.37484272  0.21201472    -0.03700
C498        C  0.35493035  0.34174433  0.23292396    -0.17100
C499        C  0.38378548  0.32995773  0.21603858    -0.15100
H500        H  0.43575424  0.32490936  0.16762782     0.20200
H501        H  0.34593330  0.41549818  0.14816038     0.16300
H502        H  0.38346786  0.43366034  0.09273234     0.18800
H503        H  0.40052474  0.30959090  0.22546828     0.12100
C504        C  0.60172577  0.61855753  0.81240964     0.16000
C505        C  0.60283386  0.64035759  0.78338914    -0.33000
C506        C  0.62686553  0.63260817  0.75782514     0.20400
C507        C  0.64864089  0.60438302  0.76098149     0.02600
C508        C  0.64739265  0.58254257  0.78980889    -0.22700
C509        C  0.62358939  0.59038513  0.81539023     0.11800
S510        S  0.57481755  0.62359001  0.84656243    -0.06400
C511        C  0.59352819  0.58749757  0.86488786    -0.09900
C512        C  0.61899608  0.57244996  0.84546783    -0.26500
S513        S  0.67670936  0.59980741  0.72796702    -0.03700
C514        C  0.65906242  0.63638615  0.70959986    -0.17100
C515        C  0.63262720  0.65109102  0.72815333    -0.15100
H516        H  0.58598091  0.66248710  0.78099648     0.20200
H517        H  0.66449836  0.56061424  0.79237322     0.16300
H518        H  0.63330216  0.54955424  0.85290554     0.18800
H519        H  0.61899529  0.67441139  0.72078989     0.12100
C520        C  0.61572625  0.37699260  0.74772098     0.16000
C521        C  0.59570834  0.37454191  0.77758656    -0.33000
C522        C  0.60307901  0.39676716  0.80473672     0.20400
C523        C  0.62916223  0.42046003  0.80217462     0.02600
C524        C  0.64918131  0.42289992  0.77229020    -0.22700
C525        C  0.64189400  0.40058588  0.74517120     0.11800
S526        S  0.61139852  0.35164623  0.71250032    -0.06400
C527        C  0.64551452  0.37268214  0.69414778    -0.09900
C528        C  0.65906533  0.39833774  0.71438213    -0.26500
S529        S  0.63383557  0.44540446  0.83772370    -0.03700
C530        C  0.60026926  0.42377303  0.85624661    -0.17100
C531        C  0.58640961  0.39847084  0.83581301    -0.15100
H532        H  0.57537347  0.35599841  0.77962370     0.20200
H533        H  0.66964846  0.44130133  0.77033349     0.16300
H534        H  0.68085122  0.41380971  0.70739932     0.18800
H535        H  0.56503894  0.38254503  0.84309523     0.12100
C536        C  0.39194276  0.33977401  0.77731119     0.16000
C537        C  0.41734592  0.34533358  0.80196586    -0.33000
C538        C  0.41376428  0.37420253  0.82300455     0.20400
C539        C  0.38617645  0.39660489  0.81964457     0.02600
C540        C  0.36077001  0.39103319  0.79498174    -0.22700
C541        C  0.36429818  0.36210417  0.77400233     0.11800
S542        S  0.39176379  0.30641193  0.74917218    -0.06400
C543        C  0.35397323  0.32266587  0.73276997    -0.09900
C544        C  0.34233537  0.35236100  0.74852608    -0.26500
S545        S  0.38635017  0.42994427  0.84787774    -0.00500
C546        C  0.42391068  0.41342877  0.86442459    -0.17100
C547        C  0.43556643  0.38376947  0.84867078    -0.15100
H548        H  0.43893278  0.32791056  0.80465415     0.20200
H549        H  0.33916213  0.40843428  0.79231742     0.16300
H550        H  0.31926878  0.36630060  0.74146662     0.18800
H551        H  0.45855526  0.36976195  0.85586046     0.12100
C552        C  0.36409644  0.63757131  0.77996664     0.16000
C553        C  0.36691249  0.61119197  0.80470133    -0.33000
C554        C  0.39367491  0.61294240  0.82842069     0.20400
C555        C  0.41659383  0.63987166  0.82762913     0.02600
C556        C  0.41378092  0.66632783  0.80281488    -0.22700
C557        C  0.38702186  0.66448552  0.77893750     0.11800
S558        S  0.33350108  0.63962730  0.74899281    -0.06400
C559        C  0.35173844  0.67710416  0.73411753    -0.09900
C560        C  0.38009538  0.68737819  0.75251072    -0.26500
S561        S  0.44732543  0.63718143  0.85864975    -0.03700
C562        C  0.42908616  0.59937213  0.87267329    -0.17100
C563        C  0.40070739  0.58956564  0.85425020    -0.15100
H564        H  0.34905773  0.59013776  0.80534377     0.20200
H565        H  0.43172018  0.68729482  0.80207178     0.16300
H566        H  0.39484025  0.71013386  0.74680308     0.18800
H567        H  0.38608825  0.56659893  0.85941709     0.12100
loop_ 
_geom_bond_atom_site_label_1 
_geom_bond_atom_site_label_2 
_geom_bond_distance 
_geom_bond_site_symmetry_2 
_ccdc_geom_bond_type 
N1            N2   1.319       .  A
N1            N7   1.315       .  A
N1          Mn30   2.195       .  S
N2            C9   1.352       .  A
N3            N5   1.314       .  A
N3            N4   1.315       .  A
N3          Mn19   2.174   1_554  S
N4           C10   1.347       .  A
N5            N6   1.321       .  A
N5          Mn30   2.195   1_554  S
N6           C10   1.353       .  A
N7            N8   1.318       .  A
N7          Mn19   2.186       .  S
N8            C9   1.349       .  A
C9          C511   1.460       .  S
C10         C463   1.458       .  S
N11          N17   1.315       .  A
N11          N12   1.322       .  A
N11         Mn41   2.212   1_554  S
N12          C20   1.355       .  A
N13          N14   1.316       .  A
N13          N15   1.315       .  A
N13         Mn19   2.175       .  S
N14          C21   1.347       .  A
N15          N16   1.323       .  A
N15         Mn41   2.217       .  S
N16          C21   1.357       .  A
N17          N18   1.318       .  A
N17         Mn19   2.187   1_554  S
N18          C20   1.350       .  A
Mn19        Cl43   2.538       .  S
C20         C479   1.469       .  S
C21         C562   1.466       .  S
N22          N23   1.319       .  A
N22          N28   1.315       .  A
N22         Mn30   2.192   1_554  S
N23          C31   1.351       .  A
N24          N26   1.315       .  A
N24          N25   1.323       .  A
N24         Mn42   2.209       .  S
N25          C32   1.355       .  A
N26          N27   1.319       .  A
N26         Mn30   2.195       .  S
N27          C32   1.350       .  A
N28          N29   1.323       .  A
N28         Mn42   2.215   1_554  S
N29          C31   1.355       .  A
Mn30        Cl43   2.548       .  S
C31         C447   1.473       .  S
C32         C530   1.470       .  S
N33          N34   1.320       .  A
N33          N39   1.317       .  A
N33         Mn41   2.204       .  S
N34          C44   1.352       .  A
N35          N36   1.318       .  A
N35          N37   1.316       .  A
N35         Mn42   2.192   1_554  S
N36          C45   1.350       .  A
N37          N38   1.320       .  A
N37         Mn41   2.201   1_554  S
N38          C45   1.353       .  A
N39          N40   1.320       .  A
N39         Mn42   2.204       .  S
N40          C44   1.352       .  A
Mn41        Cl43   2.549       .  S
Mn42        Cl43   2.544       .  S
C44         C546   1.467       .  S
C45         C495   1.463       .  S
N46          N47   1.319       .  A
N46          N52   1.315       .  A
N46         Mn75   2.194   1_565  S
N47          C54   1.350       .  A
N48          N50   1.315       .  A
N48          N49   1.320       .  A
N48         Mn64   2.199       .  S
N49          C55   1.352       .  A
N50          N51   1.321       .  A
N50         Mn75   2.202       .  S
N51          C55   1.353       .  A
N52          N53   1.322       .  A
N52         Mn64   2.206   1_565  S
N53          C54   1.354       .  A
C54         C434   1.468       .  S
C55         C354   1.469       .  S
N56          N62   1.316       .  A
N56          N57   1.318       .  A
N56         Mn86   2.191       .  S
N57          C65   1.350       .  A
N58          N59   1.319       .  A
N58          N60   1.316       .  A
N58         Mn64   2.197   1_565  S
N59          C66   1.352       .  A
N60          N61   1.321       .  A
N60         Mn86   2.203   1_565  S
N61          C66   1.353       .  A
N62          N63   1.320       .  A
N62         Mn64   2.201       .  S
N63          C65   1.353       .  A
Mn64        Cl88   2.547       .  S
C65         C338   1.463       .  S
C66         C386   1.468       .  S
N67          N68   1.318       .  A
N67          N73   1.315       .  A
N67         Mn75   2.192       .  S
N68          C76   1.350       .  A
N69          N71   1.315       .  A
N69          N70   1.319       .  A
N69         Mn87   2.195   1_565  S
N70          C77   1.351       .  A
N71          N72   1.320       .  A
N71         Mn75   2.199   1_565  S
N72          C77   1.353       .  A
N73          N74   1.319       .  A
N73         Mn87   2.192       .  S
N74          C76   1.352       .  A
Mn75        Cl88   2.542       .  S
C76         C367   1.461       .  S
C77         C418   1.465       .  S
N78          N79   1.319       .  A
N78          N84   1.315       .  A
N78         Mn86   2.196   1_565  S
N79          C89   1.352       .  A
N80          N81   1.320       .  A
N80          N82   1.315       .  A
N80         Mn87   2.196       .  S
N81          C90   1.352       .  A
N82          N83   1.319       .  A
N82         Mn86   2.199       .  S
N83          C90   1.352       .  A
N84          N85   1.318       .  A
N84         Mn87   2.192   1_565  S
N85          C89   1.350       .  A
Mn86        Cl88   2.544       .  S
Mn87        Cl88   2.548       .  S
C89         C399   1.462       .  S
C90         C322   1.467       .  S
N91          N92   1.319       .  A
N91          N97   1.314       .  A
N91        Mn120   2.193   1_655  S
N92          C99   1.352       .  A
N93          N95   1.315       .  A
N93          N94   1.317       .  A
N93        Mn109   2.185       .  S
N94         C100   1.348       .  A
N95          N96   1.323       .  A
N95        Mn120   2.214       .  S
N96         C100   1.356       .  A
N97          N98   1.317       .  A
N97        Mn109   2.180   1_655  S
N98          C99   1.349       .  A
C99         C303   1.458       .  S
C100        C223   1.468       .  S
N101        N107   1.315       .  A
N101        N102   1.322       .  A
N101       Mn131   2.208       .  S
N102        C110   1.355       .  A
N103        N104   1.319       .  A
N103        N105   1.314       .  A
N103       Mn109   2.184   1_655  S
N104        C111   1.350       .  A
N105        N106   1.317       .  A
N105       Mn131   2.186   1_655  S
N106        C111   1.350       .  A
N107        N108   1.316       .  A
N107       Mn109   2.182       .  S
N108        C110   1.348       .  A
Mn109      Cl133   2.539       .  S
C110        C207   1.464       .  S
C111        C258   1.458       .  S
N112        N113   1.318       .  A
N112        N118   1.316       .  A
N112       Mn120   2.194       .  S
N113        C121   1.351       .  A
N114        N116   1.316       .  A
N114        N115   1.321       .  A
N114       Mn132   2.207   1_655  S
N115        C122   1.354       .  A
N116        N117   1.320       .  A
N116       Mn120   2.198   1_655  S
N117        C122   1.351       .  A
N118        N119   1.321       .  A
N118       Mn132   2.205       .  S
N119        C121   1.352       .  A
Mn120      Cl133   2.548       .  S
C121        C242   1.465       .  S
C122        C287   1.470       .  S
N123        N124   1.320       .  A
N123        N129   1.315       .  A
N123       Mn131   2.201   1_655  S
N124        C134   1.352       .  A
N125        N126   1.320       .  A
N125        N127   1.316       .  A
N125       Mn132   2.205       .  S
N126        C135   1.353       .  A
N127        N128   1.318       .  A
N127       Mn131   2.187       .  S
N128        C135   1.350       .  A
N129        N130   1.321       .  A
N129       Mn132   2.205   1_655  S
N130        C134   1.354       .  A
Mn131      Cl133   2.548       .  S
Mn132      Cl133   2.543       .  S
C134        C271   1.471       .  S
C135        C194   1.464       .  S
C136        N137   1.361       .  A
C136        N141   1.354       .  A
C136        C290   1.471       .  S
N137        C138   1.363       .  A
C138        N139   1.360       .  A
C138        C450   1.475       .  S
N139        C140   1.357       .  A
C140        N141   1.353       .  A
C140        C370   1.468       .  S
C142        N143   1.352       .  A
C142        N147   1.356       .  A
C142        C306   1.462       .  S
N143        C144   1.352       .  A
C144        N145   1.358       .  A
C144        C466   1.463       .  S
N145        C146   1.359       .  A
C146        N147   1.359       .  A
C146        C415   1.469       .  S
C148        N149   1.362       .  A
C148        N153   1.355       .  A
C148        C527   1.474       .  S
N149        C150   1.364       .  A
C150        N151   1.359       .  A
C150        C274   1.475       .  S
N151        C152   1.356       .  A
C152        N153   1.353       .  A
C152        C319   1.470       .  S
C154        N155   1.360       .  A
C154        N159   1.359       .  A
C154        C431   1.473       .  S
N155        C156   1.358       .  A
C156        N157   1.356       .  A
C156        C482   1.473       .  S
N157        C158   1.356       .  A
C158        N159   1.359       .  A
C158        C226   1.471       .  S
C160        N161   1.360       .  A
C160        N165   1.363       .  A
C160        C383   1.472       .  S
N161        C162   1.355       .  A
C162        N163   1.351       .  A
C162        C210   1.467       .  S
N163        C164   1.352       .  A
C164        N165   1.361       .  A
C164        C559   1.469       .  S
C166        N167   1.359       .  A
C166        N171   1.357       .  A
C166        C543   1.470       .  S
N167        C168   1.359       .  A
C168        N169   1.356       .  A
C168        C191   1.468       .  S
N169        C170   1.354       .  A
C170        N171   1.356       .  A
C170        C335   1.467       .  S
C172        N173   1.352       .  A
C172        N177   1.356       .  A
C172        C514   1.463       .  S
N173        C174   1.352       .  A
C174        N175   1.356       .  A
C174        C255   1.463       .  S
N175        C176   1.359       .  A
C176        N177   1.358       .  A
C176        C402   1.466       .  S
C178        N179   1.361       .  A
C178        N183   1.360       .  A
C178        C351   1.472       .  S
N179        C180   1.359       .  A
C180        N181   1.354       .  A
C180        C239   1.469       .  S
N181        C182   1.353       .  A
C182        N183   1.358       .  A
C182        C498   1.468       .  S
C184        S190   1.702       .  A
C184        C189   1.387       .  A
C184        C185   1.398       .  A
C185        C186   1.399       .  A
C185        H196   1.083       .  S
C186        C195   1.367       .  A
C186        C187   1.388       .  A
C187        S193   1.705       .  A
C187        C188   1.401       .  A
C188        C189   1.401       .  A
C188        H197   1.083       .  S
C189        C192   1.369       .  A
S190        C191   1.722       .  A
C191        C192   1.386       .  A
C192        H198   1.083       .  S
S193        C194   1.722       .  A
C194        C195   1.383       .  A
C195        H199   1.083       .  S
C200        S206   1.708       .  A
C200        C205   1.387       .  A
C200        C201   1.398       .  A
C201        C202   1.401       .  A
C201        H212   1.082       .  S
C202        C211   1.363       .  A
C202        C203   1.387       .  A
C203        S209   1.708       .  A
C203        C204   1.399       .  A
C204        C205   1.401       .  A
C204        H213   1.082       .  S
C205        C208   1.364       .  A
S206        C207   1.720       .  A
C207        C208   1.385       .  A
C208        H214   1.083       .  S
S209        C210   1.721       .  A
C210        C211   1.386       .  A
C211        H215   1.083       .  S
C216        S222   1.703       .  A
C216        C221   1.388       .  A
C216        C217   1.401       .  A
C217        C218   1.401       .  A
C217        H228   1.083       .  S
C218        C227   1.371       .  A
C218        C219   1.387       .  A
C219        S225   1.704       .  A
C219        C220   1.401       .  A
C220        C221   1.401       .  A
C220        H229   1.083       .  S
C221        C224   1.371       .  A
S222        C223   1.723       .  A
C223        C224   1.384       .  A
C224        H230   1.083       .  S
S225        C226   1.724       .  A
C226        C227   1.386       .  A
C227        H231   1.083       .  S
C232        S238   1.699       .  A
C232        C237   1.388       .  A
C232        C233   1.397       .  A
C233        C234   1.398       .  A
C233        H244   1.082       .  S
C234        C243   1.364       .  A
C234        C235   1.387       .  A
C235        S241   1.709       .  A
C235        C236   1.403       .  A
C236        C237   1.404       .  A
C236        H245   1.082       .  S
C237        C240   1.372       .  A
S238        C239   1.722       .  A
C239        C240   1.387       .  A
C240        H246   1.082       .  S
S241        C242   1.723       .  A
C242        C243   1.382       .  A
C243        H247   1.083       .  S
C248        S254   1.698       .  A
C248        C253   1.388       .  A
C248        C249   1.395       .  A
C249        C250   1.396       .  A
C249        H260   1.082       .  S
C250        C259   1.362       .  A
C250        C251   1.388       .  A
C251        S257   1.705       .  A
C251        C252   1.400       .  A
C252        C253   1.401       .  A
C252        H261   1.082       .  S
C253        C256   1.367       .  A
S254        C255   1.721       .  A
C255        C256   1.385       .  A
C256        H262   1.082       .  S
S257        C258   1.721       .  A
C258        C259   1.381       .  A
C259        H263   1.083       .  S
C264        S270   1.708       .  A
C264        C269   1.387       .  A
C264        C265   1.403       .  A
C265        C266   1.404       .  A
C265        H276   1.082       .  S
C266        C275   1.373       .  A
C266        C267   1.387       .  A
C267        S273   1.704       .  A
C267        C268   1.401       .  A
C268        C269   1.401       .  A
C268        H277   1.083       .  S
C269        C272   1.370       .  A
S270        C271   1.724       .  A
C271        C272   1.385       .  A
C272        H278   1.083       .  S
S273        C274   1.724       .  A
C274        C275   1.388       .  A
C275        H279   1.083       .  S
C280        S286   1.707       .  A
C280        C285   1.387       .  A
C280        C281   1.403       .  A
C281        C282   1.403       .  A
C281        H292   1.082       .  S
C282        C291   1.374       .  A
C282        C283   1.388       .  A
C283        S289   1.702       .  A
C283        C284   1.400       .  A
C284        C285   1.400       .  A
C284        H293   1.082       .  S
C285        C288   1.370       .  A
S286        C287   1.723       .  A
C287        C288   1.384       .  A
C288        H294   1.082       .  S
S289        C290   1.724       .  A
C290        C291   1.387       .  A
C291        H295   1.082       .  S
C296        S302   1.702       .  A
C296        C301   1.388       .  A
C296        C297   1.398       .  A
C297        C298   1.399       .  A
C297        H308   1.083       .  S
C298        C307   1.366       .  A
C298        C299   1.388       .  A
C299        S305   1.700       .  A
C299        C300   1.397       .  A
C300        C301   1.398       .  A
C300        H309   1.083       .  S
C301        C304   1.364       .  A
S302        C303   1.720       .  A
C303        C304   1.381       .  A
C304        H310   1.083       .  S
S305        C306   1.722       .  A
C306        C307   1.383       .  A
C307        H311   1.083       .  S
C312        S318   1.702       .  A
C312        C317   1.387       .  A
C312        C313   1.398       .  A
C313        C314   1.399       .  A
C313        H324   1.083       .  S
C314        C323   1.367       .  A
C314        C315   1.387       .  A
C315        S321   1.708       .  A
C315        C316   1.402       .  A
C316        C317   1.403       .  A
C316        H325   1.083       .  S
C317        C320   1.371       .  A
S318        C319   1.723       .  A
C319        C320   1.387       .  A
C320        H326   1.083       .  S
S321        C322   1.723       .  A
C322        C323   1.384       .  A
C323        H327   1.083       .  S
C328        S334   1.705       .  A
C328        C333   1.387       .  A
C328        C329   1.400       .  A
C329        C330   1.401       .  A
C329        H340   1.083       .  S
C330        C339   1.367       .  A
C330        C331   1.388       .  A
C331        S337   1.703       .  A
C331        C332   1.398       .  A
C332        C333   1.399       .  A
C332        H341   1.083       .  S
C333        C336   1.366       .  A
S334        C335   1.723       .  A
C335        C336   1.384       .  A
C336        H342   1.083       .  S
S337        C338   1.720       .  A
C338        C339   1.384       .  A
C339        H343   1.083       .  S
C344        S350   1.706       .  A
C344        C349   1.387       .  A
C344        C345   1.400       .  A
C345        C346   1.401       .  A
C345        H356   1.083       .  S
C346        C355   1.368       .  A
C346        C347   1.387       .  A
C347        S353   1.709       .  A
C347        C348   1.402       .  A
C348        C349   1.403       .  A
C348        H357   1.083       .  S
C349        C352   1.370       .  A
S350        C351   1.722       .  A
C351        C352   1.388       .  A
C352        H358   1.083       .  S
S353        C354   1.723       .  A
C354        C355   1.385       .  A
C355        H359   1.083       .  S
C360        S366   1.705       .  A
C360        C365   1.388       .  A
C360        C361   1.400       .  A
C361        C362   1.401       .  A
C361        H372   1.083       .  S
C362        C371   1.369       .  A
C362        C363   1.388       .  A
C363        S369   1.700       .  A
C363        C364   1.398       .  A
C364        C365   1.398       .  A
C364        H373   1.083       .  S
C365        C368   1.365       .  A
S366        C367   1.721       .  A
C367        C368   1.382       .  A
C368        H374   1.083       .  S
S369        C370   1.723       .  A
C370        C371   1.385       .  A
C371        H375   1.083       .  S
C376        S382   1.703       .  A
C376        C381   1.387       .  A
C376        C377   1.399       .  A
C377        C378   1.400       .  A
C377        H388   1.083       .  S
C378        C387   1.367       .  A
C378        C379   1.387       .  A
C379        S385   1.709       .  A
C379        C380   1.403       .  A
C380        C381   1.403       .  A
C380        H389   1.083       .  S
C381        C384   1.372       .  A
S382        C383   1.723       .  A
C383        C384   1.387       .  A
C384        H390   1.083       .  S
S385        C386   1.722       .  A
C386        C387   1.384       .  A
C387        H391   1.083       .  S
C392        S398   1.704       .  A
C392        C397   1.388       .  A
C392        C393   1.399       .  A
C393        C394   1.400       .  A
C393        H404   1.084       .  S
C394        C403   1.366       .  A
C394        C395   1.387       .  A
C395        S401   1.703       .  A
C395        C396   1.398       .  A
C396        C397   1.399       .  A
C396        H405   1.084       .  S
C397        C400   1.366       .  A
S398        C399   1.721       .  A
C399        C400   1.383       .  A
C400        H406   1.084       .  S
S401        C402   1.722       .  A
C402        C403   1.385       .  A
C403        H407   1.083       .  S
C408        S414   1.706       .  A
C408        C413   1.387       .  A
C408        C409   1.400       .  A
C409        C410   1.402       .  A
C409        H420   1.084       .  S
C410        C419   1.368       .  A
C410        C411   1.388       .  A
C411        S417   1.704       .  A
C411        C412   1.399       .  A
C412        C413   1.400       .  A
C412        H421   1.084       .  S
C413        C416   1.366       .  A
S414        C415   1.723       .  A
C415        C416   1.385       .  A
C416        H422   1.084       .  S
S417        C418   1.720       .  A
C418        C419   1.384       .  A
C419        H423   1.084       .  S
C424        S430   1.708       .  A
C424        C429   1.387       .  A
C424        C425   1.402       .  A
C425        C426   1.403       .  A
C425        H436   1.083       .  S
C426        C435   1.372       .  A
C426        C427   1.388       .  A
C427        S433   1.705       .  A
C427        C428   1.400       .  A
C428        C429   1.401       .  A
C428        H437   1.083       .  S
C429        C432   1.369       .  A
S430        C431   1.724       .  A
C431        C432   1.386       .  A
C432        H438   1.083       .  S
S433        C434   1.721       .  A
C434        C435   1.385       .  A
C435        H439   1.083       .  S
C440        S446   1.711       .  A
C440        C445   1.387       .  A
C440        C441   1.403       .  A
C441        C442   1.404       .  A
C441        H452   1.083       .  S
C442        C451   1.371       .  A
C442        C443   1.387       .  A
C443        S449   1.708       .  A
C443        C444   1.401       .  A
C444        C445   1.402       .  A
C444        H453   1.083       .  S
C445        C448   1.369       .  A
S446        C447   1.723       .  A
C447        C448   1.386       .  A
C448        H454   1.083       .  S
S449        C450   1.722       .  A
C450        C451   1.389       .  A
C451        H455   1.083       .  S
C456        S462   1.699       .  A
C456        C461   1.388       .  A
C456        C457   1.397       .  A
C457        C458   1.397       .  A
C457        H468   1.083       .  S
C458        C467   1.366       .  A
C458        C459   1.388       .  A
C459        S465   1.700       .  A
C459        C460   1.398       .  A
C460        C461   1.399       .  A
C460        H469   1.083       .  S
C461        C464   1.367       .  A
S462        C463   1.719       .  A
C463        C464   1.382       .  A
C464        H470   1.083       .  S
S465        C466   1.723       .  A
C466        C467   1.382       .  A
C467        H471   1.083       .  S
C472        S478   1.708       .  A
C472        C477   1.387       .  A
C472        C473   1.400       .  A
C473        C474   1.402       .  A
C473        H484   1.084       .  S
C474        C483   1.367       .  A
C474        C475   1.387       .  A
C475        S481   1.709       .  A
C475        C476   1.401       .  A
C476        C477   1.403       .  A
C476        H485   1.084       .  S
C477        C480   1.368       .  A
S478        C479   1.721       .  A
C479        C480   1.386       .  A
C480        H486   1.084       .  S
S481        C482   1.724       .  A
C482        C483   1.387       .  A
C483        H487   1.084       .  S
C488        S494   1.704       .  A
C488        C493   1.388       .  A
C488        C489   1.399       .  A
C489        C490   1.400       .  A
C489        H500   1.083       .  S
C490        C499   1.369       .  A
C490        C491   1.387       .  A
C491        S497   1.702       .  A
C491        C492   1.399       .  A
C492        C493   1.399       .  A
C492        H501   1.083       .  S
C493        C496   1.367       .  A
S494        C495   1.721       .  A
C495        C496   1.383       .  A
C496        H502   1.083       .  S
S497        C498   1.723       .  A
C498        C499   1.385       .  A
C499        H503   1.083       .  S
C504        S510   1.705       .  A
C504        C509   1.388       .  A
C504        C505   1.400       .  A
C505        C506   1.401       .  A
C505        H516   1.083       .  S
C506        C515   1.368       .  A
C506        C507   1.388       .  A
C507        S513   1.698       .  A
C507        C508   1.395       .  A
C508        C509   1.396       .  A
C508        H517   1.083       .  S
C509        C512   1.363       .  A
S510        C511   1.722       .  A
C511        C512   1.381       .  A
C512        H518   1.083       .  S
S513        C514   1.721       .  A
C514        C515   1.385       .  A
C515        H519   1.083       .  S
C520        S526   1.702       .  A
C520        C525   1.387       .  A
C520        C521   1.401       .  A
C521        C522   1.401       .  A
C521        H532   1.084       .  S
C522        C531   1.372       .  A
C522        C523   1.387       .  A
C523        S529   1.705       .  A
C523        C524   1.402       .  A
C524        C525   1.402       .  A
C524        H533   1.083       .  S
C525        C528   1.373       .  A
S526        C527   1.726       .  A
C527        C528   1.386       .  A
C528        H534   1.083       .  S
S529        C530   1.723       .  A
C530        C531   1.386       .  A
C531        H535   1.083       .  S
C536        S542   1.704       .  A
C536        C541   1.387       .  A
C536        C537   1.400       .  A
C537        C538   1.401       .  A
C537        H548   1.083       .  S
C538        C547   1.369       .  A
C538        C539   1.387       .  A
C539        S545   1.706       .  A
C539        C540   1.400       .  A
C540        C541   1.401       .  A
C540        H549   1.083       .  S
C541        C544   1.369       .  A
S542        C543   1.724       .  A
C543        C544   1.386       .  A
C544        H550   1.083       .  S
S545        C546   1.722       .  A
C546        C547   1.385       .  A
C547        H551   1.083       .  S
C552        S558   1.697       .  A
C552        C557   1.388       .  A
C552        C553   1.398       .  A
C553        C554   1.397       .  A
C553        H564   1.083       .  S
C554        C563   1.369       .  A
C554        C555   1.388       .  A
C555        S561   1.703       .  A
C555        C556   1.402       .  A
C556        C557   1.402       .  A
C556        H565   1.083       .  S
C557        C560   1.373       .  A
S558        C559   1.723       .  A
C559        C560   1.386       .  A
C560        H566   1.083       .  S
S561        C562   1.724       .  A
C562        C563   1.382       .  A
C563        H567   1.083       .  S
