geometry optimzed in LAMMPS
_audit_creation_date              2020-11-30 
_audit_creation_method            'lammps2cif' 
_symmetry_space_group_name_H-M    'P1' 
_symmetry_Int_Tables_number       1 
_symmetry_cell_setting            triclinic 
loop_ 
_symmetry_equiv_pos_as_xyz 
  x,y,z 
_cell_length_a                    22.240559634899423 
_cell_length_b                    22.21167853066788 
_cell_length_c                    43.92537336473973 
_cell_angle_alpha                 89.72301386732885 
_cell_angle_beta                  90.15322850743568 
_cell_angle_gamma                 94.68574566222432 
loop_ 
_atom_site_label 
_atom_site_type_symbol 
_atom_site_fract_x 
_atom_site_fract_y 
_atom_site_fract_z 
_atom_site_charge 
N1          N  0.12895043  0.01279678  0.66187887    -0.27090
N2          N  0.15645646  0.00316363  0.68788628    -0.34940
C3          C  0.11493920  0.99758748  0.71010095     0.01260
C4          C  0.05810833  0.00347101  0.69760171     0.07280
C5          C  0.06973677  0.01552815  0.66698804    -0.05820
H6          H  0.12509850  0.98958979  0.73381267     0.07950
H7          H  0.03918638  0.02826723  0.64953770     0.09150
Cu8        Cu  0.24926535  0.00011047  0.69178067     0.44170
Cu9        Cu  0.17106781  0.51495718  0.61988414     0.41990
Cu10       Cu  0.32702094  0.48509527  0.61975611     0.43880
N11         N  0.34203211  0.99721370  0.68777145    -0.34470
N12         N  0.36932024  0.98753360  0.66182366    -0.28730
C13         C  0.42859525  0.98492164  0.66698688    -0.04830
C14         C  0.44047508  0.99711493  0.69754111     0.07390
C15         C  0.38374148  0.00293400  0.70997217     0.01190
H16         H  0.45900965  0.97209922  0.64963623     0.08840
H17         H  0.37376385  0.01091431  0.73364032     0.07920
N18         N  0.27746629  0.49502819  0.58032230    -0.35920
N19         N  0.21988677  0.50531539  0.58040034    -0.28100
C20         C  0.20021483  0.50830911  0.55152521    -0.03340
C21         C  0.24809171  0.50049470  0.53203743     0.05270
C22         C  0.29632165  0.49213075  0.55137032     0.03360
H23         H  0.15402514  0.51465045  0.54559190     0.08470
H24         H  0.34209266  0.48487076  0.54501298     0.07300
N25         N  0.37323384  0.48652330  0.26952504    -0.27090
N26         N  0.34573288  0.49621607  0.24352313    -0.34940
C27         C  0.38725394  0.50183638  0.22131152     0.01260
C28         C  0.44408178  0.49592158  0.23380776     0.07280
C29         C  0.43244739  0.48379720  0.26441444    -0.05820
H30         H  0.37709825  0.50987794  0.19760345     0.07950
H31         H  0.46299227  0.47100822  0.28185645     0.09150
Cu32       Cu  0.25292466  0.49927677  0.23962951     0.44170
Cu33       Cu  0.33116094  0.48428014  0.31152192     0.41990
Cu34       Cu  0.17520915  0.51415283  0.31165732     0.43880
N35         N  0.16015715  0.50216799  0.24363884    -0.34470
N36         N  0.13286386  0.51179122  0.26959204    -0.28730
C37         C  0.07358854  0.51440706  0.26442994    -0.04830
C38         C  0.06171497  0.50227813  0.23386860     0.07390
C39         C  0.11845170  0.49648942  0.22143480     0.01190
H40         H  0.04316786  0.52718023  0.28178874     0.08840
H41         H  0.12843313  0.48855057  0.19776308     0.07920
N42         N  0.22475821  0.50415740  0.35108834    -0.35920
N43         N  0.28233640  0.49386497  0.35100830    -0.28100
C44         C  0.30200618  0.49084486  0.37988299    -0.03340
C45         C  0.25412947  0.49864951  0.39937230     0.05270
C46         C  0.20590162  0.50703212  0.38004087     0.03360
H47         H  0.34819585  0.48450062  0.38581523     0.08470
H48         H  0.16013271  0.51429802  0.38639934     0.07300
C49         C  0.00284764  0.49918416  0.21560019    -0.02280
C50         C  0.49934006  0.00020857  0.71580935    -0.02280
N51         N  0.01669158  0.12929436  0.16145487    -0.27090
N52         N  0.00663972  0.15661208  0.18734027    -0.34940
C53         C  0.00053007  0.11489728  0.20959185     0.01220
C54         C  0.00636996  0.05809130  0.19726176     0.07280
C55         C  0.01900562  0.06989131  0.16671222    -0.05820
H56         H  0.99211423  0.12491744  0.23321029     0.07950
H57         H  0.03160564  0.03917917  0.14943219     0.09150
Cu58       Cu  0.00303559  0.24934531  0.19122370     0.44170
Cu59       Cu  0.01943597  0.17202786  0.11939891     0.41990
Cu60       Cu  0.98451273  0.32746755  0.11974330     0.43880
N61         N  0.99913667  0.34214008  0.18751804    -0.34470
N62         N  0.98833796  0.36978473  0.16166473    -0.28730
C63         C  0.98591408  0.42907791  0.16687638    -0.04830
C64         C  0.99928483  0.44050258  0.19735823     0.07390
C65         C  0.00562144  0.38355078  0.20972030     0.01190
H66         H  0.97267470  0.45995693  0.14963458     0.08840
H67         H  0.01460649  0.37322927  0.23331755     0.07920
N68         N  0.99467373  0.27873000  0.08027982    -0.35920
N69         N  0.00739765  0.22171592  0.08011266    -0.28100
C70         C  0.01064945  0.20318853  0.05112299    -0.03340
C71         C  0.99976088  0.25097861  0.03192743     0.05270
C72         C  0.99024588  0.29829342  0.05142521     0.03360
H73         H  0.01982098  0.15795294  0.04460966     0.08470
H74         H  0.98194892  0.34409776  0.04539790     0.07300
N75         N  0.48534079  0.37009206  0.76994271    -0.27090
N76         N  0.49555943  0.34278716  0.74407397    -0.34940
C77         C  0.50180841  0.38451214  0.72183200     0.01260
C78         C  0.49589242  0.44131287  0.73415126     0.07280
C79         C  0.48305576  0.42949687  0.76467960    -0.05820
H80         H  0.51034535  0.37449869  0.69822512     0.07950
H81         H  0.47030979  0.46019525  0.78193350     0.09150
Cu82       Cu  0.49915061  0.25005338  0.74018456     0.44170
Cu83       Cu  0.48228065  0.32733756  0.81199623     0.41990
Cu84       Cu  0.51715110  0.17188551  0.81168297     0.43880
N85         N  0.50301338  0.15725397  0.74388652    -0.34470
N86         N  0.51362912  0.12959208  0.76975795    -0.28730
C87         C  0.51606489  0.07029863  0.76455300    -0.04830
C88         C  0.50290011  0.05889366  0.73404868     0.07390
C89         C  0.49665918  0.11585410  0.72167460     0.01190
H90         H  0.52915033  0.03940369  0.78182248     0.08840
H91         H  0.48780845  0.12618555  0.69806445     0.07920
N92         N  0.50675703  0.22058241  0.85113521    -0.35920
N93         N  0.49405453  0.27760297  0.85129664    -0.28100
C94         C  0.49069219  0.29610576  0.88028669    -0.03340
C95         C  0.50149217  0.24829268  0.89948539     0.05270
C96         C  0.51105966  0.20099012  0.87999015     0.03360
H97         H  0.48153901  0.34134711  0.88679927     0.08470
H98         H  0.51933895  0.15518140  0.88601742     0.07300
C99         C  0.99975757  0.25095090  0.99802448    -0.05260
C100        C  0.03064591  0.20779984  0.98245428    -0.32690
C101        C  0.03196775  0.20636893  0.95061182     0.36560
C102        C  0.50145838  0.24830735  0.93338819    -0.05620
C103        C  0.47056522  0.29145680  0.94895765    -0.32590
C104        C  0.46924412  0.29288765  0.98080160     0.36470
H105        H  0.05511980  0.17544392  0.99492862     0.16840
O106        O  0.06437217  0.16433065  0.93678933    -0.60090
H107        H  0.44609913  0.32381597  0.93648081     0.16850
O108        O  0.43684969  0.33493091  0.99462664    -0.60180
H109        H  0.39605147  0.31439732  0.99782252     0.43850
H110        H  0.10517139  0.18486676  0.93359991     0.43800
C111        C  0.24862083  0.50013438  0.49806752    -0.05260
C112        C  0.29556524  0.47427472  0.48278252    -0.32690
C113        C  0.29851591  0.47369682  0.45093675     0.36560
C114        C  0.25360189  0.49900490  0.43334230    -0.05620
C115        C  0.20667296  0.02487292  0.44862397    -0.32590
C116        C  0.20371019  0.02544899  0.48046900     0.36470
H117        H  0.33019741  0.45342094  0.49544167     0.16840
O118        O  0.34432255  0.44590524  0.43748271    -0.60090
H119        H  0.17204577  0.04572940  0.43596263     0.16850
O120        O  0.15790114  0.05324456  0.49391838    -0.60180
H121        H  0.12157627  0.02454071  0.49169728     0.43850
H122        H  0.38064540  0.47461338  0.43969914     0.43800
N123        N  0.12899889  0.51280476  0.66188193    -0.27090
N124        N  0.15650323  0.50316510  0.68788893    -0.34940
C125        C  0.11498458  0.49758635  0.71010298     0.01260
C126        C  0.05815473  0.50347444  0.69760317     0.07280
C127        C  0.06978548  0.51553771  0.66699042    -0.05820
H128        H  0.12514211  0.48958388  0.73381446     0.07950
H129        H  0.03923700  0.52828234  0.64954043     0.09150
Cu130      Cu  0.24931207  0.50010806  0.69178058     0.44170
Cu131      Cu  0.17101745  0.01494514  0.61987967     0.41990
Cu132      Cu  0.32697059  0.98508196  0.61976095     0.43880
N133        N  0.34207881  0.49721540  0.68776851    -0.34470
N134        N  0.36936858  0.48754227  0.66182022    -0.28730
C135        C  0.42864384  0.48493178  0.66698403    -0.04830
C136        C  0.44052144  0.49711838  0.69753925     0.07390
C137        C  0.38378684  0.50293271  0.70996985     0.01190
H138        H  0.45905999  0.47211507  0.64963289     0.08840
H139        H  0.37380751  0.51090788  0.73363830     0.07920
N140        N  0.27742688  0.99501866  0.58032480    -0.35920
N141        N  0.21984745  0.00530645  0.58039818    -0.28100
C142        C  0.20018675  0.00830495  0.55152108    -0.03340
C143        C  0.24807144  0.00049292  0.53203753     0.05270
C144        C  0.29629342  0.99212559  0.55137471     0.03360
H145        H  0.15399968  0.01464864  0.54558340     0.08470
H146        H  0.34206708  0.98486693  0.54502171     0.07300
N147        N  0.37327386  0.98652066  0.26952709    -0.27090
N148        N  0.34577192  0.99621419  0.24352545    -0.34940
C149        C  0.38729223  0.00183684  0.22131360     0.01260
C150        C  0.44412068  0.99592285  0.23380913     0.07280
C151        C  0.43248761  0.98379662  0.26441582    -0.05820
H152        H  0.37713554  0.00987942  0.19760574     0.07950
H153        H  0.46303382  0.97100816  0.28185736     0.09150
Cu154      Cu  0.25296369  0.99927424  0.23963045     0.44170
Cu155      Cu  0.33120280  0.98427460  0.31152495     0.41990
Cu156      Cu  0.17525170  0.01415502  0.31165522     0.43880
N157        N  0.16019607  0.00216813  0.24363784    -0.34470
N158        N  0.13290356  0.01179298  0.26959098    -0.28730
C159        C  0.07362829  0.01440990  0.26442924    -0.04830
C160        C  0.06175375  0.00228013  0.23386809     0.07390
C161        C  0.11849007  0.99648983  0.22143398     0.01190
H162        H  0.04320810  0.02718406  0.28178808     0.08840
H163        H  0.12847073  0.98854985  0.19776228     0.07920
N164        N  0.22479665  0.00416000  0.35108730    -0.35920
N165        N  0.28237398  0.99386398  0.35101006    -0.28100
C166        C  0.30203834  0.99084559  0.37988593    -0.03340
C167        C  0.25415868  0.99865592  0.39937276     0.05270
C168        C  0.20593527  0.00703896  0.38003868     0.03360
H169        H  0.34822616  0.98449836  0.38582065     0.08470
H170        H  0.16016564  0.01430779  0.38639446     0.07300
C171        C  0.00288551  0.99918703  0.21560053    -0.02280
C172        C  0.49938486  0.50021281  0.71580912    -0.02280
N173        N  0.01666782  0.62929034  0.16145412    -0.27090
N174        N  0.00661940  0.65660973  0.18733946    -0.34940
C175        C  0.00050206  0.61489504  0.20959085     0.01220
C176        C  0.00633444  0.55808763  0.19726078     0.07280
C177        C  0.01897242  0.56988615  0.16671133    -0.05820
H178        H  0.99208907  0.62491659  0.23320941     0.07950
H179        H  0.03156953  0.53917242  0.14943143     0.09150
Cu180      Cu  0.00303641  0.74934545  0.19122328     0.44170
Cu181      Cu  0.01942392  0.67202503  0.11939854     0.41990
Cu182      Cu  0.98452463  0.82747164  0.11974291     0.43880
N183        N  0.99915816  0.84214274  0.18751736    -0.34470
N184        N  0.98836211  0.86978930  0.16166425    -0.28730
C185        C  0.98594712  0.92908349  0.16687604    -0.04830
C186        C  0.99932083  0.94050640  0.19735777     0.07390
C187        C  0.00565069  0.88355306  0.20971956     0.01190
H188        H  0.97270979  0.95996423  0.14963460     0.08840
H189        H  0.01463335  0.87322988  0.23331686     0.07920
N190        N  0.99467707  0.77873169  0.08027935    -0.35920
N191        N  0.00739386  0.72171543  0.08011231    -0.28100
C192        C  0.01064357  0.70318718  0.05112270    -0.03340
C193        C  0.99976075  0.75097881  0.03192712     0.05270
C194        C  0.99025138  0.79829546  0.05142467     0.03360
H195        H  0.01980950  0.65795001  0.04460936     0.08470
H196        H  0.98196001  0.84410112  0.04539699     0.07300
N197        N  0.48531023  0.87008647  0.76994240    -0.27090
N198        N  0.49553416  0.84278378  0.74407370    -0.34940
C199        C  0.50177553  0.88450905  0.72183165     0.01260
C200        C  0.49585049  0.94130803  0.73415093     0.07280
C201        C  0.48301472  0.92949005  0.76467918    -0.05820
H202        H  0.51031675  0.87449733  0.69822501     0.07950
H203        H  0.47026433  0.96018640  0.78193307     0.09150
Cu204      Cu  0.49915022  0.75005321  0.74018470     0.44170
Cu205      Cu  0.48226229  0.82733233  0.81199604     0.41990
Cu206      Cu  0.51716978  0.67189007  0.81168251     0.43880
N207        N  0.50303831  0.65725710  0.74388600    -0.34470
N208        N  0.51365991  0.62959735  0.76975728    -0.28730
C209        C  0.51610636  0.57030524  0.76455211    -0.04830
C210        C  0.50294203  0.55889844  0.73404792     0.07390
C211        C  0.49669157  0.61585710  0.72167394     0.01190
H212        H  0.52919652  0.53941224  0.78182147     0.08840
H213        H  0.48783613  0.62618691  0.69806409     0.07920
N214        N  0.50676309  0.72058370  0.85113466    -0.35920
N215        N  0.49404849  0.77760062  0.85129620    -0.28100
C216        C  0.49068238  0.79610215  0.88028628    -0.03340
C217        C  0.50149209  0.74829190  0.89948503     0.05270
C218        C  0.51106941  0.70099230  0.87998956     0.03360
H219        H  0.48151979  0.84134088  0.88679877     0.08470
H220        H  0.51935814  0.65518590  0.88601644     0.07300
C221        C  0.99975767  0.75095081  0.99802430    -0.05260
C222        C  0.03064677  0.70780023  0.98245429    -0.32690
C223        C  0.03196902  0.70636924  0.95061185     0.36560
C224        C  0.50145844  0.74830664  0.93338799    -0.05620
C225        C  0.47056414  0.79145540  0.94895749    -0.32590
C226        C  0.46924352  0.79288681  0.98080143     0.36470
H227        H  0.05512114  0.67544497  0.99492888     0.16840
O228        O  0.06437482  0.66433169  0.93678973    -0.60090
H229        H  0.44609701  0.82381388  0.93648080     0.16850
O230        O  0.43684881  0.83492975  0.99462659    -0.60180
H231        H  0.39605095  0.81439560  0.99782286     0.43850
H232        H  0.10517389  0.68486851  0.93360079     0.43800
C233        C  0.24861562  0.00013794  0.49806763    -0.05260
C234        C  0.29556771  0.97428203  0.48278680    -0.32690
C235        C  0.29853127  0.97370740  0.45094129     0.36560
C236        C  0.25362223  0.99901390  0.43334279    -0.05620
C237        C  0.20665843  0.52486494  0.44862754    -0.32590
C238        C  0.20370814  0.52544363  0.48047289     0.36470
H239        H  0.33019583  0.95342831  0.49544894     0.16840
O240        O  0.34434573  0.94592078  0.43749144    -0.60090
H241        H  0.17202694  0.54572093  0.43596909     0.16850
O242        O  0.15790442  0.55324051  0.49392635    -0.60180
H243        H  0.12157872  0.52453634  0.49170938     0.43850
H244        H  0.38066441  0.97463390  0.43970944     0.43800
N245        N  0.62895043  0.01279678  0.66187888    -0.27090
N246        N  0.65645646  0.00316363  0.68788629    -0.34940
C247        C  0.61493920  0.99758748  0.71010095     0.01260
C248        C  0.55810832  0.00347101  0.69760172     0.07280
C249        C  0.56973677  0.01552814  0.66698804    -0.05820
H250        H  0.62509850  0.98958979  0.73381268     0.07950
H251        H  0.53918638  0.02826723  0.64953770     0.09150
Cu252      Cu  0.74926535  0.00011047  0.69178067     0.44170
Cu253      Cu  0.67106781  0.51495718  0.61988414     0.41990
Cu254      Cu  0.82702094  0.48509527  0.61975611     0.43880
N255        N  0.84203211  0.99721370  0.68777145    -0.34470
N256        N  0.86932024  0.98753361  0.66182367    -0.28730
C257        C  0.92859525  0.98492164  0.66698688    -0.04830
C258        C  0.94047508  0.99711493  0.69754111     0.07390
C259        C  0.88374148  0.00293400  0.70997217     0.01190
H260        H  0.95900965  0.97209922  0.64963622     0.08840
H261        H  0.87376385  0.01091431  0.73364032     0.07920
N262        N  0.77746629  0.49502819  0.58032230    -0.35920
N263        N  0.71988677  0.50531540  0.58040035    -0.28100
C264        C  0.70021483  0.50830911  0.55152521    -0.03340
C265        C  0.74809170  0.50049470  0.53203743     0.05270
C266        C  0.79632165  0.49213076  0.55137032     0.03360
H267        H  0.65402514  0.51465045  0.54559191     0.08470
H268        H  0.84209266  0.48487077  0.54501298     0.07300
N269        N  0.87323384  0.48652330  0.26952504    -0.27090
N270        N  0.84573288  0.49621607  0.24352313    -0.34940
C271        C  0.88725394  0.50183638  0.22131152     0.01260
C272        C  0.94408178  0.49592158  0.23380776     0.07280
C273        C  0.93244739  0.48379720  0.26441444    -0.05820
H274        H  0.87709825  0.50987794  0.19760345     0.07950
H275        H  0.96299227  0.47100823  0.28185645     0.09150
Cu276      Cu  0.75292466  0.49927677  0.23962951     0.44170
Cu277      Cu  0.83116095  0.48428015  0.31152192     0.41990
Cu278      Cu  0.67520915  0.51415283  0.31165732     0.43880
N279        N  0.66015715  0.50216799  0.24363884    -0.34470
N280        N  0.63286386  0.51179121  0.26959204    -0.28730
C281        C  0.57358854  0.51440705  0.26442994    -0.04830
C282        C  0.56171497  0.50227813  0.23386860     0.07390
C283        C  0.61845170  0.49648942  0.22143481     0.01190
H284        H  0.54316786  0.52718022  0.28178874     0.08840
H285        H  0.62843313  0.48855057  0.19776308     0.07920
N286        N  0.72475821  0.50415740  0.35108834    -0.35920
N287        N  0.78233640  0.49386497  0.35100830    -0.28100
C288        C  0.80200618  0.49084487  0.37988299    -0.03340
C289        C  0.75412947  0.49864951  0.39937230     0.05270
C290        C  0.70590163  0.50703212  0.38004087     0.03360
H291        H  0.84819585  0.48450063  0.38581523     0.08470
H292        H  0.66013271  0.51429801  0.38639934     0.07300
C293        C  0.50284765  0.49918416  0.21560019    -0.02280
C294        C  0.99934006  0.00020857  0.71580935    -0.02280
N295        N  0.51669160  0.12929436  0.16145487    -0.27090
N296        N  0.50663973  0.15661208  0.18734027    -0.34940
C297        C  0.50053007  0.11489727  0.20959186     0.01220
C298        C  0.50636996  0.05809130  0.19726176     0.07280
C299        C  0.51900564  0.06989131  0.16671222    -0.05820
H300        H  0.49211422  0.12491744  0.23321029     0.07950
H301        H  0.53160567  0.03917917  0.14943219     0.09150
Cu302      Cu  0.50303560  0.24934531  0.19122371     0.44170
Cu303      Cu  0.51943601  0.17202786  0.11939891     0.41990
Cu304      Cu  0.48451278  0.32746755  0.11974330     0.43880
N305        N  0.49913668  0.34214008  0.18751804    -0.34470
N306        N  0.48833798  0.36978473  0.16166473    -0.28730
C307        C  0.48591410  0.42907791  0.16687638    -0.04830
C308        C  0.49928483  0.44050258  0.19735823     0.07390
C309        C  0.50562143  0.38355078  0.20972031     0.01190
H310        H  0.47267473  0.45995693  0.14963458     0.08840
H311        H  0.51460648  0.37322927  0.23331755     0.07920
N312        N  0.49467379  0.27873000  0.08027982    -0.35920
N313        N  0.50739770  0.22171592  0.08011266    -0.28100
C314        C  0.51064950  0.20318853  0.05112299    -0.03340
C315        C  0.49976093  0.25097861  0.03192744     0.05270
C316        C  0.49024593  0.29829342  0.05142521     0.03360
H317        H  0.51982102  0.15795294  0.04460966     0.08470
H318        H  0.48194898  0.34409776  0.04539790     0.07300
N319        N  0.98534080  0.37009207  0.76994271    -0.27090
N320        N  0.99555943  0.34278716  0.74407397    -0.34940
C321        C  0.00180841  0.38451214  0.72183200     0.01260
C322        C  0.99589242  0.44131287  0.73415126     0.07280
C323        C  0.98305576  0.42949687  0.76467960    -0.05820
H324        H  0.01034536  0.37449870  0.69822512     0.07950
H325        H  0.97030980  0.46019525  0.78193349     0.09150
Cu326      Cu  0.99915062  0.25005338  0.74018456     0.44170
Cu327      Cu  0.98228066  0.32733756  0.81199622     0.41990
Cu328      Cu  0.01715111  0.17188551  0.81168297     0.43880
N329        N  0.00301339  0.15725397  0.74388652    -0.34470
N330        N  0.01362913  0.12959208  0.76975794    -0.28730
C331        C  0.01606489  0.07029863  0.76455300    -0.04830
C332        C  0.00290012  0.05889366  0.73404868     0.07390
C333        C  0.99665918  0.11585410  0.72167460     0.01190
H334        H  0.02915033  0.03940369  0.78182248     0.08840
H335        H  0.98780845  0.12618556  0.69806445     0.07920
N336        N  0.00675703  0.22058241  0.85113521    -0.35920
N337        N  0.99405454  0.27760297  0.85129664    -0.28100
C338        C  0.99069219  0.29610577  0.88028669    -0.03340
C339        C  0.00149216  0.24829268  0.89948539     0.05270
C340        C  0.01105966  0.20099012  0.87999015     0.03360
H341        H  0.98153901  0.34134711  0.88679926     0.08470
H342        H  0.01933894  0.15518140  0.88601742     0.07300
C343        C  0.49975761  0.25095090  0.99802448    -0.05260
C344        C  0.53064594  0.20779983  0.98245427    -0.32690
C345        C  0.53196777  0.20636892  0.95061182     0.36560
C346        C  0.00145836  0.24830736  0.93338819    -0.05620
C347        C  0.97056519  0.29145680  0.94895765    -0.32590
C348        C  0.96924408  0.29288764  0.98080159     0.36470
H349        H  0.55511982  0.17544391  0.99492862     0.16840
O350        O  0.56437217  0.16433063  0.93678933    -0.60090
H351        H  0.94609909  0.32381596  0.93648080     0.16850
O352        O  0.93684964  0.33493090  0.99462663    -0.60180
H353        H  0.89605141  0.31439730  0.99782251     0.43850
H354        H  0.60517140  0.18486673  0.93359991     0.43800
C355        C  0.74862082  0.50013438  0.49806752    -0.05260
C356        C  0.79556525  0.47427474  0.48278253    -0.32690
C357        C  0.79851592  0.47369684  0.45093675     0.36560
C358        C  0.75360189  0.49900490  0.43334230    -0.05620
C359        C  0.70667295  0.02487291  0.44862397    -0.32590
C360        C  0.70371018  0.02544897  0.48046900     0.36470
H361        H  0.83019743  0.45342097  0.49544167     0.16840
O362        O  0.84432257  0.44590528  0.43748271    -0.60090
H363        H  0.67204575  0.04572937  0.43596263     0.16850
O364        O  0.65790111  0.05324453  0.49391838    -0.60180
H365        H  0.62157626  0.02454066  0.49169728     0.43850
H366        H  0.88064541  0.47461344  0.43969914     0.43800
N367        N  0.62899889  0.51280476  0.66188193    -0.27090
N368        N  0.65650323  0.50316509  0.68788894    -0.34940
C369        C  0.61498458  0.49758635  0.71010298     0.01260
C370        C  0.55815473  0.50347443  0.69760318     0.07280
C371        C  0.56978548  0.51553771  0.66699042    -0.05820
H372        H  0.62514211  0.48958388  0.73381446     0.07950
H373        H  0.53923700  0.52828234  0.64954044     0.09150
Cu374      Cu  0.74931207  0.50010806  0.69178058     0.44170
Cu375      Cu  0.67101744  0.01494514  0.61987968     0.41990
Cu376      Cu  0.82697058  0.98508197  0.61976095     0.43880
N377        N  0.84207881  0.49721540  0.68776851    -0.34470
N378        N  0.86936858  0.48754227  0.66182022    -0.28730
C379        C  0.92864384  0.48493178  0.66698403    -0.04830
C380        C  0.94052144  0.49711838  0.69753925     0.07390
C381        C  0.88378684  0.50293271  0.70996985     0.01190
H382        H  0.95905998  0.47211508  0.64963289     0.08840
H383        H  0.87380752  0.51090788  0.73363830     0.07920
N384        N  0.77742688  0.99501867  0.58032481    -0.35920
N385        N  0.71984744  0.00530645  0.58039818    -0.28100
C386        C  0.70018675  0.00830495  0.55152108    -0.03340
C387        C  0.74807143  0.00049292  0.53203753     0.05270
C388        C  0.79629342  0.99212560  0.55137471     0.03360
H389        H  0.65399968  0.01464863  0.54558341     0.08470
H390        H  0.84206708  0.98486693  0.54502172     0.07300
N391        N  0.87327386  0.98652066  0.26952709    -0.27090
N392        N  0.84577192  0.99621419  0.24352545    -0.34940
C393        C  0.88729223  0.00183684  0.22131360     0.01260
C394        C  0.94412068  0.99592285  0.23380913     0.07280
C395        C  0.93248761  0.98379662  0.26441582    -0.05820
H396        H  0.87713554  0.00987942  0.19760575     0.07950
H397        H  0.96303382  0.97100816  0.28185736     0.09150
Cu398      Cu  0.75296369  0.99927424  0.23963045     0.44170
Cu399      Cu  0.83120281  0.98427461  0.31152495     0.41990
Cu400      Cu  0.67525170  0.01415501  0.31165522     0.43880
N401        N  0.66019607  0.00216813  0.24363784    -0.34470
N402        N  0.63290356  0.01179298  0.26959099    -0.28730
C403        C  0.57362829  0.01440990  0.26442924    -0.04830
C404        C  0.56175375  0.00228013  0.23386809     0.07390
C405        C  0.61849007  0.99648983  0.22143398     0.01190
H406        H  0.54320810  0.02718405  0.28178809     0.08840
H407        H  0.62847074  0.98854985  0.19776228     0.07920
N408        N  0.72479665  0.00416000  0.35108730    -0.35920
N409        N  0.78237398  0.99386399  0.35101006    -0.28100
C410        C  0.80203835  0.99084560  0.37988593    -0.03340
C411        C  0.75415868  0.99865592  0.39937276     0.05270
C412        C  0.70593528  0.00703896  0.38003868     0.03360
H413        H  0.84822617  0.98449837  0.38582065     0.08470
H414        H  0.66016564  0.01430778  0.38639446     0.07300
C415        C  0.50288551  0.99918703  0.21560053    -0.02280
C416        C  0.99938486  0.50021281  0.71580912    -0.02280
N417        N  0.51666783  0.62929034  0.16145412    -0.27090
N418        N  0.50661940  0.65660973  0.18733946    -0.34940
C419        C  0.50050206  0.61489504  0.20959085     0.01220
C420        C  0.50633444  0.55808763  0.19726078     0.07280
C421        C  0.51897243  0.56988615  0.16671133    -0.05820
H422        H  0.49208906  0.62491659  0.23320941     0.07950
H423        H  0.53156954  0.53917243  0.14943143     0.09150
Cu424      Cu  0.50303641  0.74934545  0.19122328     0.44170
Cu425      Cu  0.51942394  0.67202504  0.11939855     0.41990
Cu426      Cu  0.48452467  0.82747164  0.11974291     0.43880
N427        N  0.49915817  0.84214274  0.18751736    -0.34470
N428        N  0.48836213  0.86978930  0.16166425    -0.28730
C429        C  0.48594714  0.92908349  0.16687604    -0.04830
C430        C  0.49932084  0.94050640  0.19735777     0.07390
C431        C  0.50565069  0.88355306  0.20971956     0.01190
H432        H  0.47270982  0.95996423  0.14963460     0.08840
H433        H  0.51463334  0.87322988  0.23331686     0.07920
N434        N  0.49467710  0.77873170  0.08027935    -0.35920
N435        N  0.50739389  0.72171544  0.08011231    -0.28100
C436        C  0.51064359  0.70318719  0.05112270    -0.03340
C437        C  0.49976078  0.75097881  0.03192713     0.05270
C438        C  0.49025142  0.79829547  0.05142467     0.03360
H439        H  0.51980952  0.65795001  0.04460937     0.08470
H440        H  0.48196005  0.84410113  0.04539699     0.07300
N441        N  0.98531024  0.87008647  0.76994240    -0.27090
N442        N  0.99553417  0.84278378  0.74407370    -0.34940
C443        C  0.00177554  0.88450905  0.72183164     0.01260
C444        C  0.99585050  0.94130803  0.73415092     0.07280
C445        C  0.98301473  0.92949005  0.76467918    -0.05820
H446        H  0.01031676  0.87449733  0.69822500     0.07950
H447        H  0.97026433  0.96018640  0.78193307     0.09150
Cu448      Cu  0.99915022  0.75005321  0.74018470     0.44170
Cu449      Cu  0.98226230  0.82733233  0.81199604     0.41990
Cu450      Cu  0.01716979  0.67189007  0.81168251     0.43880
N451        N  0.00303831  0.65725710  0.74388600    -0.34470
N452        N  0.01365991  0.62959735  0.76975728    -0.28730
C453        C  0.01610636  0.57030524  0.76455211    -0.04830
C454        C  0.00294203  0.55889844  0.73404792     0.07390
C455        C  0.99669157  0.61585711  0.72167394     0.01190
H456        H  0.02919652  0.53941224  0.78182147     0.08840
H457        H  0.98783613  0.62618691  0.69806409     0.07920
N458        N  0.00676309  0.72058371  0.85113466    -0.35920
N459        N  0.99404850  0.77760062  0.85129620    -0.28100
C460        C  0.99068238  0.79610215  0.88028628    -0.03340
C461        C  0.00149209  0.74829190  0.89948503     0.05270
C462        C  0.01106941  0.70099230  0.87998956     0.03360
H463        H  0.98151979  0.84134088  0.88679876     0.08470
H464        H  0.01935814  0.65518590  0.88601644     0.07300
C465        C  0.49975770  0.75095081  0.99802430    -0.05260
C466        C  0.53064678  0.70780022  0.98245430    -0.32690
C467        C  0.53196902  0.70636923  0.95061185     0.36560
C468        C  0.00145843  0.74830664  0.93338799    -0.05620
C469        C  0.97056412  0.79145539  0.94895748    -0.32590
C470        C  0.96924349  0.79288680  0.98080143     0.36470
H471        H  0.55512114  0.67544496  0.99492888     0.16840
O472        O  0.56437481  0.66433167  0.93678973    -0.60090
H473        H  0.94609698  0.82381387  0.93648079     0.16850
O474        O  0.93684876  0.83492973  0.99462658    -0.60180
H475        H  0.89605091  0.81439557  0.99782285     0.43850
H476        H  0.60517388  0.68486847  0.93360078     0.43800
C477        C  0.74861562  0.00013795  0.49806763    -0.05260
C478        C  0.79556772  0.97428205  0.48278681    -0.32690
C479        C  0.79853128  0.97370742  0.45094129     0.36560
C480        C  0.75362224  0.99901390  0.43334279    -0.05620
C481        C  0.70665842  0.52486493  0.44862754    -0.32590
C482        C  0.70370813  0.52544362  0.48047290     0.36470
H483        H  0.83019585  0.95342834  0.49544894     0.16840
O484        O  0.84434575  0.94592082  0.43749145    -0.60090
H485        H  0.67202693  0.54572091  0.43596909     0.16850
O486        O  0.65790439  0.55324048  0.49392635    -0.60180
H487        H  0.62157870  0.52453629  0.49170938     0.43850
H488        H  0.88066442  0.97463395  0.43970944     0.43800
loop_ 
_geom_bond_atom_site_label_1 
_geom_bond_atom_site_label_2 
_geom_bond_distance 
_geom_bond_site_symmetry_2 
_ccdc_geom_bond_type 
N1            N2   1.319       .  A
N1            C5   1.343       .  A
N1         Cu131   2.069       .  S
N2            C3   1.344   1_545  A
N2           Cu8   2.077       .  S
C3            C4   1.392   1_565  A
C3            H6   1.082       .  S
C4            C5   1.391       .  A
C4          C294   1.531   1_455  S
C5            H7   1.075       .  S
Cu8          N11   2.077   1_545  S
Cu9          N19   2.070       .  S
Cu9         N123   2.069       .  S
Cu10         N18   2.071       .  S
Cu10        N134   2.071       .  S
N11          N12   1.319       .  A
N11          C15   1.343   1_565  A
N12          C13   1.343       .  A
N12        Cu132   2.071       .  S
C13          C14   1.391       .  A
C13          H16   1.075       .  S
C14          C15   1.392   1_565  A
C14          C50   1.531   1_565  S
C15          H17   1.082       .  S
N18          N19   1.319       .  A
N18          C22   1.344       .  A
N19          C20   1.344       .  A
C20          C21   1.390       .  A
C20          H23   1.079       .  S
C21          C22   1.390       .  A
C21         C111   1.492       .  S
C22          H24   1.081       .  S
N25          N26   1.319       .  A
N25          C29   1.343       .  A
N25         Cu33   2.069       .  S
N26          C27   1.344       .  A
N26         Cu32   2.077       .  S
C27          C28   1.392       .  A
C27          H30   1.082       .  S
C28          C29   1.391       .  A
C28         C293   1.531       .  S
C29          H31   1.075       .  S
Cu32         N35   2.077       .  S
Cu33         N43   2.070       .  S
Cu34         N36   2.071       .  S
Cu34         N42   2.071       .  S
N35          N36   1.319       .  A
N35          C39   1.343       .  A
N36          C37   1.343       .  A
C37          C38   1.391       .  A
C37          H40   1.075       .  S
C38          C39   1.392       .  A
C38          C49   1.531       .  S
C39          H41   1.082       .  S
N42          N43   1.319       .  A
N42          C46   1.344       .  A
N43          C44   1.344       .  A
C44          C45   1.390       .  A
C44          H47   1.079       .  S
C45          C46   1.390       .  A
C45         C114   1.492       .  S
C46          H48   1.081       .  S
C49          C64   1.530   1_455  S
C49         C272   1.531   1_455  S
C49         C176   1.530       .  S
C50          C88   1.530       .  S
C50         C248   1.531       .  S
C50         C200   1.530   1_545  S
N51          N52   1.320       .  A
N51          C55   1.343       .  A
N51         Cu59   2.072       .  S
N52          C53   1.343       .  A
N52         Cu58   2.076       .  S
C53          C54   1.391       .  A
C53          H56   1.082   1_455  S
C54          C55   1.391       .  A
C54         C171   1.530   1_545  S
C55          H57   1.076       .  S
Cu58         N61   2.076   1_455  S
Cu59         N69   2.072       .  S
Cu60         N62   2.070       .  S
Cu60         N68   2.071       .  S
N61          N62   1.319       .  A
N61          C65   1.343   1_655  A
N62          C63   1.343       .  A
C63          C64   1.391       .  A
C63          H66   1.076       .  S
C64          C65   1.392   1_655  A
C65          H67   1.082       .  S
N68          N69   1.320   1_655  A
N68          C72   1.344       .  A
N69          C70   1.344       .  A
C70          C71   1.389   1_455  A
C70          H73   1.081       .  S
C71          C72   1.389       .  A
C71          C99   1.489   1_554  S
C72          H74   1.080       .  S
N75          N76   1.320       .  A
N75          C79   1.344       .  A
N75         Cu83   2.072       .  S
N76          C77   1.343       .  A
N76         Cu82   2.076       .  S
C77          C78   1.391       .  A
C77          H80   1.082       .  S
C78          C79   1.391       .  A
C78         C172   1.530       .  S
C79          H81   1.076       .  S
Cu82         N85   2.076       .  S
Cu83         N93   2.073       .  S
Cu84         N86   2.070       .  S
Cu84         N92   2.071       .  S
N85          N86   1.319       .  A
N85          C89   1.343       .  A
N86          C87   1.343       .  A
C87          C88   1.391       .  A
C87          H90   1.076       .  S
C88          C89   1.392       .  A
C89          H91   1.082       .  S
N92          N93   1.320       .  A
N92          C96   1.344       .  A
N93          C94   1.344       .  A
C94          C95   1.389       .  A
C94          H97   1.081       .  S
C95          C96   1.389       .  A
C95         C102   1.489       .  S
C96          H98   1.080       .  S
C99         C100   1.405   1_655  A
C99         C348   1.412       .  A
C100        C101   1.400       .  A
C100        H105   1.082       .  S
C101        C346   1.412       .  A
C101        O106   1.370       .  S
C102        C103   1.405       .  A
C102        C345   1.412       .  A
C103        C104   1.400       .  A
C103        H107   1.082       .  S
C104        C343   1.412       .  A
C104        O108   1.370       .  S
O106        H110   0.992       .  S
O108        H109   0.992       .  S
C111        C112   1.406       .  A
C111        C238   1.412       .  A
C112        C113   1.401       .  A
C112        H117   1.082       .  S
C113        C114   1.412       .  A
C113        O118   1.370       .  S
C114        C237   1.406       .  A
C115        C116   1.401       .  A
C115        C236   1.406   1_545  A
C115        H119   1.082       .  S
C116        C233   1.412       .  A
C116        O120   1.370       .  S
O118        H122   0.992       .  S
O120        H121   0.992       .  S
N123        N124   1.319       .  A
N123        C127   1.343       .  A
N124        C125   1.344       .  A
N124       Cu130   2.077       .  S
C125        C126   1.392       .  A
C125        H128   1.082       .  S
C126        C127   1.391       .  A
C126        C416   1.531   1_455  S
C127        H129   1.075       .  S
Cu130       N133   2.077       .  S
Cu131       N141   2.070       .  S
Cu132       N140   2.071       .  S
N133        N134   1.319       .  A
N133        C137   1.343       .  A
N134        C135   1.343       .  A
C135        C136   1.391       .  A
C135        H138   1.075       .  S
C136        C137   1.392       .  A
C136        C172   1.531       .  S
C137        H139   1.082       .  S
N140        N141   1.319   1_565  A
N140        C144   1.344       .  A
N141        C142   1.344       .  A
C142        C143   1.390       .  A
C142        H145   1.079       .  S
C143        C144   1.390   1_545  A
C143        C233   1.492       .  S
C144        H146   1.081       .  S
N147        N148   1.319       .  A
N147        C151   1.343       .  A
N147       Cu155   2.069       .  S
N148        C149   1.344   1_565  A
N148       Cu154   2.077       .  S
C149        C150   1.392   1_545  A
C149        H152   1.082       .  S
C150        C151   1.391       .  A
C150        C415   1.531       .  S
C151        H153   1.075       .  S
Cu154       N157   2.077   1_565  S
Cu155       N165   2.070       .  S
Cu156       N158   2.071       .  S
Cu156       N164   2.071       .  S
N157        N158   1.319       .  A
N157        C161   1.343   1_545  A
N158        C159   1.343       .  A
C159        C160   1.391       .  A
C159        H162   1.075       .  S
C160        C161   1.392   1_545  A
C160        C171   1.531   1_545  S
C161        H163   1.082       .  S
N164        N165   1.319   1_545  A
N164        C168   1.344       .  A
N165        C166   1.344       .  A
C166        C167   1.390       .  A
C166        H169   1.079       .  S
C167        C168   1.390   1_565  A
C167        C236   1.492       .  S
C168        H170   1.081       .  S
C171        C394   1.531   1_455  S
C171        C186   1.530   1_455  S
C172        C370   1.531       .  S
C172        C210   1.530       .  S
N173        N174   1.320       .  A
N173        C177   1.343       .  A
N173       Cu181   2.072       .  S
N174        C175   1.343       .  A
N174       Cu180   2.076       .  S
C175        C176   1.391       .  A
C175        H178   1.082   1_455  S
C176        C177   1.391       .  A
C177        H179   1.076       .  S
Cu180       N183   2.076   1_455  S
Cu181       N191   2.072       .  S
Cu182       N184   2.070       .  S
Cu182       N190   2.071       .  S
N183        N184   1.319       .  A
N183        C187   1.343   1_655  A
N184        C185   1.343       .  A
C185        C186   1.391       .  A
C185        H188   1.076       .  S
C186        C187   1.392   1_655  A
C187        H189   1.082       .  S
N190        N191   1.320   1_655  A
N190        C194   1.344       .  A
N191        C192   1.344       .  A
C192        C193   1.389   1_455  A
C192        H195   1.081       .  S
C193        C194   1.389       .  A
C193        C221   1.489   1_554  S
C194        H196   1.080       .  S
N197        N198   1.320       .  A
N197        C201   1.344       .  A
N197       Cu205   2.072       .  S
N198        C199   1.343       .  A
N198       Cu204   2.076       .  S
C199        C200   1.391       .  A
C199        H202   1.082       .  S
C200        C201   1.391       .  A
C201        H203   1.076       .  S
Cu204       N207   2.076       .  S
Cu205       N215   2.073       .  S
Cu206       N208   2.070       .  S
Cu206       N214   2.071       .  S
N207        N208   1.319       .  A
N207        C211   1.343       .  A
N208        C209   1.343       .  A
C209        C210   1.391       .  A
C209        H212   1.076       .  S
C210        C211   1.392       .  A
C211        H213   1.082       .  S
N214        N215   1.320       .  A
N214        C218   1.344       .  A
N215        C216   1.344       .  A
C216        C217   1.389       .  A
C216        H219   1.081       .  S
C217        C218   1.389       .  A
C217        C224   1.489       .  S
C218        H220   1.080       .  S
C221        C222   1.405   1_655  A
C221        C470   1.412       .  A
C222        C223   1.400       .  A
C222        H227   1.082       .  S
C223        C468   1.412       .  A
C223        O228   1.370       .  S
C224        C467   1.412       .  A
C224        C225   1.405       .  A
C225        C226   1.400       .  A
C225        H229   1.082       .  S
C226        C465   1.412       .  A
C226        O230   1.370       .  S
O228        H232   0.992       .  S
O230        H231   0.992       .  S
C233        C234   1.406   1_545  A
C234        C235   1.401       .  A
C234        H239   1.082       .  S
C235        C236   1.412       .  A
C235        O240   1.370       .  S
C237        C238   1.401       .  A
C237        H241   1.082       .  S
C238        O242   1.370       .  S
O240        H244   0.992       .  S
O242        H243   0.992       .  S
N245        N246   1.319       .  A
N245        C249   1.343       .  A
N245       Cu375   2.069       .  S
N246        C247   1.344   1_545  A
N246       Cu252   2.077       .  S
C247        C248   1.392   1_565  A
C247        H250   1.082       .  S
C248        C249   1.391       .  A
C249        H251   1.075       .  S
Cu252       N255   2.077   1_545  S
Cu253       N367   2.069       .  S
Cu253       N263   2.070       .  S
Cu254       N378   2.071       .  S
Cu254       N262   2.071       .  S
N255        N256   1.319       .  A
N255        C259   1.343   1_565  A
N256        C257   1.343       .  A
N256       Cu376   2.071       .  S
C257        C258   1.391       .  A
C257        H260   1.075       .  S
C258        C259   1.392   1_565  A
C258        C294   1.531   1_565  S
C259        H261   1.082       .  S
N262        N263   1.319       .  A
N262        C266   1.344       .  A
N263        C264   1.344       .  A
C264        C265   1.390       .  A
C264        H267   1.079       .  S
C265        C266   1.390       .  A
C265        C355   1.492       .  S
C266        H268   1.081       .  S
N269        N270   1.319       .  A
N269        C273   1.343       .  A
N269       Cu277   2.069       .  S
N270        C271   1.344       .  A
N270       Cu276   2.077       .  S
C271        C272   1.392       .  A
C271        H274   1.082       .  S
C272        C273   1.391       .  A
C273        H275   1.075       .  S
Cu276       N279   2.077       .  S
Cu277       N287   2.070       .  S
Cu278       N280   2.071       .  S
Cu278       N286   2.071       .  S
N279        N280   1.319       .  A
N279        C283   1.343       .  A
N280        C281   1.343       .  A
C281        C282   1.391       .  A
C281        H284   1.075       .  S
C282        C283   1.392       .  A
C282        C293   1.531       .  S
C283        H285   1.082       .  S
N286        N287   1.319       .  A
N286        C290   1.344       .  A
N287        C288   1.344       .  A
C288        C289   1.390       .  A
C288        H291   1.079       .  S
C289        C290   1.390       .  A
C289        C358   1.492       .  S
C290        H292   1.081       .  S
C293        C308   1.530       .  S
C293        C420   1.530       .  S
C294        C332   1.530   1_655  S
C294        C444   1.530   1_545  S
N295        N296   1.320       .  A
N295        C299   1.343       .  A
N295       Cu303   2.072       .  S
N296        C297   1.343       .  A
N296       Cu302   2.076       .  S
C297        C298   1.391       .  A
C297        H300   1.082       .  S
C298        C299   1.391       .  A
C298        C415   1.530   1_545  S
C299        H301   1.076       .  S
Cu302       N305   2.076       .  S
Cu303       N313   2.072       .  S
Cu304       N306   2.070       .  S
Cu304       N312   2.071       .  S
N305        N306   1.319       .  A
N305        C309   1.343       .  A
N306        C307   1.343       .  A
C307        C308   1.391       .  A
C307        H310   1.076       .  S
C308        C309   1.392       .  A
C309        H311   1.082       .  S
N312        N313   1.320       .  A
N312        C316   1.344       .  A
N313        C314   1.344       .  A
C314        C315   1.389       .  A
C314        H317   1.081       .  S
C315        C316   1.389       .  A
C315        C343   1.489   1_554  S
C316        H318   1.080       .  S
N319        N320   1.320       .  A
N319        C323   1.344       .  A
N319       Cu327   2.072       .  S
N320        C321   1.343   1_655  A
N320       Cu326   2.076       .  S
C321        C322   1.391   1_455  A
C321        H324   1.082       .  S
C322        C323   1.391       .  A
C322        C416   1.530       .  S
C323        H325   1.076       .  S
Cu326       N329   2.076   1_655  S
Cu327       N337   2.073       .  S
Cu328       N330   2.070       .  S
Cu328       N336   2.071       .  S
N329        N330   1.319       .  A
N329        C333   1.343   1_455  A
N330        C331   1.343       .  A
C331        C332   1.391       .  A
C331        H334   1.076       .  S
C332        C333   1.392   1_455  A
C333        H335   1.082       .  S
N336        N337   1.320   1_455  A
N336        C340   1.344       .  A
N337        C338   1.344       .  A
C338        C339   1.389   1_655  A
C338        H341   1.081       .  S
C339        C340   1.389       .  A
C339        C346   1.489       .  S
C340        H342   1.080       .  S
C343        C344   1.405       .  A
C344        C345   1.400       .  A
C344        H349   1.082       .  S
C345        O350   1.370       .  S
C346        C347   1.405   1_455  A
C347        C348   1.400       .  A
C347        H351   1.082       .  S
C348        O352   1.370       .  S
O350        H354   0.992       .  S
O352        H353   0.992       .  S
C355        C356   1.406       .  A
C355        C482   1.412       .  A
C356        C357   1.401       .  A
C356        H361   1.082       .  S
C357        C358   1.412       .  A
C357        O362   1.370       .  S
C358        C481   1.406       .  A
C359        C480   1.406   1_545  A
C359        C360   1.401       .  A
C359        H363   1.082       .  S
C360        C477   1.412       .  A
C360        O364   1.370       .  S
O362        H366   0.992       .  S
O364        H365   0.992       .  S
N367        N368   1.319       .  A
N367        C371   1.343       .  A
N368        C369   1.344       .  A
N368       Cu374   2.077       .  S
C369        C370   1.392       .  A
C369        H372   1.082       .  S
C370        C371   1.391       .  A
C371        H373   1.075       .  S
Cu374       N377   2.077       .  S
Cu375       N385   2.070       .  S
Cu376       N384   2.071       .  S
N377        N378   1.319       .  A
N377        C381   1.343       .  A
N378        C379   1.343       .  A
C379        C380   1.391       .  A
C379        H382   1.075       .  S
C380        C381   1.392       .  A
C380        C416   1.531       .  S
C381        H383   1.082       .  S
N384        N385   1.319   1_565  A
N384        C388   1.344       .  A
N385        C386   1.344       .  A
C386        C387   1.390       .  A
C386        H389   1.079       .  S
C387        C388   1.390   1_545  A
C387        C477   1.492       .  S
C388        H390   1.081       .  S
N391        N392   1.319       .  A
N391        C395   1.343       .  A
N391       Cu399   2.069       .  S
N392        C393   1.344   1_565  A
N392       Cu398   2.077       .  S
C393        C394   1.392   1_545  A
C393        H396   1.082       .  S
C394        C395   1.391       .  A
C395        H397   1.075       .  S
Cu398       N401   2.077   1_565  S
Cu399       N409   2.070       .  S
Cu400       N402   2.071       .  S
Cu400       N408   2.071       .  S
N401        N402   1.319       .  A
N401        C405   1.343   1_545  A
N402        C403   1.343       .  A
C403        C404   1.391       .  A
C403        H406   1.075       .  S
C404        C405   1.392   1_545  A
C404        C415   1.531   1_545  S
C405        H407   1.082       .  S
N408        N409   1.319   1_545  A
N408        C412   1.344       .  A
N409        C410   1.344       .  A
C410        C411   1.390       .  A
C410        H413   1.079       .  S
C411        C412   1.390   1_565  A
C411        C480   1.492       .  S
C412        H414   1.081       .  S
C415        C430   1.530       .  S
C416        C454   1.530   1_655  S
N417        N418   1.320       .  A
N417        C421   1.343       .  A
N417       Cu425   2.072       .  S
N418        C419   1.343       .  A
N418       Cu424   2.076       .  S
C419        C420   1.391       .  A
C419        H422   1.082       .  S
C420        C421   1.391       .  A
C421        H423   1.076       .  S
Cu424       N427   2.076       .  S
Cu425       N435   2.072       .  S
Cu426       N428   2.070       .  S
Cu426       N434   2.071       .  S
N427        N428   1.319       .  A
N427        C431   1.343       .  A
N428        C429   1.343       .  A
C429        C430   1.391       .  A
C429        H432   1.076       .  S
C430        C431   1.392       .  A
C431        H433   1.082       .  S
N434        N435   1.320       .  A
N434        C438   1.344       .  A
N435        C436   1.344       .  A
C436        C437   1.389       .  A
C436        H439   1.081       .  S
C437        C438   1.389       .  A
C437        C465   1.489   1_554  S
C438        H440   1.080       .  S
N441        N442   1.320       .  A
N441        C445   1.344       .  A
N441       Cu449   2.072       .  S
N442        C443   1.343   1_655  A
N442       Cu448   2.076       .  S
C443        C444   1.391   1_455  A
C443        H446   1.082       .  S
C444        C445   1.391       .  A
C445        H447   1.076       .  S
Cu448       N451   2.076   1_655  S
Cu449       N459   2.073       .  S
Cu450       N452   2.070       .  S
Cu450       N458   2.071       .  S
N451        N452   1.319       .  A
N451        C455   1.343   1_455  A
N452        C453   1.343       .  A
C453        C454   1.391       .  A
C453        H456   1.076       .  S
C454        C455   1.392   1_455  A
C455        H457   1.082       .  S
N458        N459   1.320   1_455  A
N458        C462   1.344       .  A
N459        C460   1.344       .  A
C460        C461   1.389   1_655  A
C460        H463   1.081       .  S
C461        C462   1.389       .  A
C461        C468   1.489       .  S
C462        H464   1.080       .  S
C465        C466   1.405       .  A
C466        C467   1.400       .  A
C466        H471   1.082       .  S
C467        O472   1.370       .  S
C468        C469   1.405   1_455  A
C469        C470   1.400       .  A
C469        H473   1.082       .  S
C470        O474   1.370       .  S
O472        H476   0.992       .  S
O474        H475   0.992       .  S
C477        C478   1.406   1_545  A
C478        C479   1.401       .  A
C478        H483   1.082       .  S
C479        C480   1.412       .  A
C479        O484   1.370       .  S
C481        C482   1.401       .  A
C481        H485   1.082       .  S
C482        O486   1.370       .  S
O484        H488   0.992       .  S
O486        H487   0.992       .  S
