geometry optimzed in LAMMPS
_audit_creation_date              2020-12-01 
_audit_creation_method            'lammps2cif' 
_symmetry_space_group_name_H-M    'P1' 
_symmetry_Int_Tables_number       1 
_symmetry_cell_setting            triclinic 
loop_ 
_symmetry_equiv_pos_as_xyz 
  x,y,z 
_cell_length_a                    43.56176327 
_cell_length_b                    43.55732263161474 
_cell_length_c                    43.56234284916585 
_cell_angle_alpha                 90.00364105382502 
_cell_angle_beta                  90.0034983137159 
_cell_angle_gamma                 90.00180502007167 
loop_ 
_atom_site_label 
_atom_site_type_symbol 
_atom_site_fract_x 
_atom_site_fract_y 
_atom_site_fract_z 
_atom_site_charge 
N1          N  0.69132343  0.62454250  0.78721127    -0.27500
N2          N  0.71258651  0.62436803  0.80885195    -0.35300
C3          C  0.73260415  0.60163278  0.80315514     0.00900
C4          C  0.72342333  0.58688451  0.77665378     0.06900
C5          C  0.69719231  0.60190385  0.76712434    -0.06200
H6          H  0.75275559  0.59677564  0.81684126     0.07600
H7          H  0.68383352  0.59730894  0.74669282     0.08800
Cu8        Cu  0.71459196  0.65596633  0.84401803     0.44200
Cu9        Cu  0.65648029  0.65650997  0.78486561     0.42000
Cu10       Cu  0.65624477  0.71489817  0.84374648     0.43900
N11         N  0.71237581  0.69089736  0.87586115    -0.34900
N12         N  0.69102400  0.71245087  0.87576322    -0.29100
C13         C  0.69679930  0.73247303  0.89847590    -0.05200
C14         C  0.72305992  0.72299711  0.91347228     0.07000
C15         C  0.73235941  0.69658522  0.89863442     0.00800
H16         H  0.68338354  0.75285618  0.90310652     0.08500
H17         H  0.75259419  0.68299996  0.90341411     0.07500
N18         N  0.62471680  0.71300990  0.80848905    -0.36300
N19         N  0.62480602  0.69163786  0.78695258    -0.28500
C20         C  0.60221260  0.69750895  0.76682335    -0.03700
C21         C  0.58729250  0.72384784  0.77621191     0.04900
C22         C  0.60206541  0.73310175  0.80267962     0.03000
H23         H  0.59752634  0.68402178  0.74649667     0.08100
H24         H  0.59723970  0.75330608  0.81629989     0.06900
N25         N  0.71253497  0.91432744  0.65289436    -0.27500
N26         N  0.69093569  0.91452664  0.67419755    -0.35300
C27         C  0.69689706  0.93704227  0.69439742     0.00900
C28         C  0.72352808  0.95160574  0.68528375     0.06900
C29         C  0.73285332  0.93671404  0.65891281    -0.06200
H30         H  0.68327540  0.94190074  0.71458749     0.07600
H31         H  0.75326864  0.94125494  0.64551941     0.08800
Cu32       Cu  0.65544020  0.88325104  0.67592461     0.44200
Cu33       Cu  0.71452020  0.88272198  0.61771654     0.42000
Cu34       Cu  0.65513137  0.82497871  0.61686732     0.43900
N35         N  0.62344127  0.84845185  0.67342500    -0.34900
N36         N  0.62335325  0.82714634  0.65182324    -0.29100
C37         C  0.60073830  0.80701301  0.65757440    -0.05200
C38         C  0.58599099  0.81615232  0.68408068     0.07000
C39         C  0.60086520  0.84249137  0.69354469     0.00800
H40         H  0.59605789  0.78674127  0.64400106     0.08500
H41         H  0.59630421  0.85578727  0.71402406     0.07500
N42         N  0.69044662  0.82673438  0.58546283    -0.36300
N43         N  0.71218984  0.84788882  0.58575351    -0.28500
C44         C  0.73241914  0.84185942  0.56329536    -0.03700
C45         C  0.72287860  0.81562792  0.54828021     0.04900
C46         C  0.69621810  0.80661608  0.56283482     0.03000
H47         H  0.75296338  0.85509084  0.55884410     0.08100
H48         H  0.68248486  0.78650398  0.55794090     0.06900
N49         N  0.84800225  0.62358946  0.67358184    -0.27500
N50         N  0.82644136  0.62366621  0.65223365    -0.35300
C51         C  0.80628588  0.60111144  0.65817159     0.00900
C52         C  0.81567773  0.58625040  0.68453560     0.06900
C53         C  0.84217966  0.60099434  0.69372102    -0.06200
H54         H  0.78586580  0.59651005  0.64479676     0.07600
H55         H  0.85574297  0.59627560  0.71398804     0.08800
Cu56       Cu  0.82410184  0.65549496  0.61727483     0.44200
Cu57       Cu  0.88312306  0.65524407  0.67567567     0.42000
Cu58       Cu  0.88262342  0.71412234  0.61734161     0.43900
N59         N  0.82599874  0.69074263  0.58573552    -0.34900
N60         N  0.84743995  0.71220607  0.58576731    -0.29100
C61         C  0.84151034  0.73244152  0.56328421    -0.05200
C62         C  0.81505165  0.72319677  0.54849848     0.07000
C63         C  0.80579702  0.69670222  0.56322796     0.00800
H64         H  0.85501220  0.75276222  0.55862140     0.08500
H65         H  0.78549355  0.68319406  0.55850474     0.07500
N66         N  0.91453035  0.71193958  0.65220785    -0.36300
N67         N  0.91473021  0.69040590  0.67357608    -0.28500
C68         C  0.93737921  0.69631355  0.69364019    -0.03700
C69         C  0.95201669  0.72285020  0.68436763     0.04900
C70         C  0.93704053  0.73216544  0.65804460     0.03000
H71         H  0.94220738  0.68278922  0.71390343     0.08100
H72         H  0.94154418  0.75257089  0.64462126     0.06900
N73         N  0.84790777  0.91435874  0.78841630    -0.27500
N74         N  0.82650116  0.91443265  0.80990607    -0.35300
C75         C  0.80643134  0.93709392  0.80407619     0.00900
C76         C  0.81574353  0.95187421  0.77763370     0.06900
C77         C  0.84209500  0.93696490  0.76829211    -0.06200
H78         H  0.78613169  0.94182868  0.81757855     0.07600
H79         H  0.85554566  0.94157071  0.74792887     0.08800
Cu80       Cu  0.82438890  0.88262000  0.84487088     0.44200
Cu81       Cu  0.88275365  0.88245316  0.78618660     0.42000
Cu82       Cu  0.88273701  0.82347861  0.84446444     0.43900
N83         N  0.82640582  0.84737887  0.87638515    -0.34900
N84         N  0.84770560  0.82576744  0.87626626    -0.29100
C85         C  0.84171658  0.80559714  0.89880013    -0.05200
C86         C  0.81537491  0.81504030  0.91368463     0.07000
C87         C  0.80625691  0.84157952  0.89897524     0.00800
H88         H  0.85506121  0.78516041  0.90340056     0.08500
H89         H  0.78604852  0.85521037  0.90373901     0.07500
N90         N  0.91435161  0.82567235  0.80925818    -0.36300
N91         N  0.91431569  0.84726852  0.78794988    -0.28500
C92         C  0.93682266  0.84152494  0.76769395    -0.03700
C93         C  0.95164914  0.81503221  0.77675400     0.04900
C94         C  0.93691090  0.80555650  0.80317098     0.03000
H95         H  0.94147986  0.85518610  0.74748268     0.08100
H96         H  0.94165763  0.78516111  0.81652631     0.06900
O97         O  0.72817215  0.76422214  0.94843136    -0.73100
O98         O  0.77368410  0.81009465  0.01345083    -0.74100
O99         O  0.77398349  0.80994875  0.94849730    -0.62700
O100        O  0.72793778  0.76429547  0.01340251    -0.71100
O101        O  0.76404813  0.72825376  0.01359747    -0.70700
O102        O  0.81000864  0.77382181  0.94864404    -0.61900
O103        O  0.80980699  0.77406423  0.01361188    -0.74400
O104        O  0.76419187  0.72808881  0.94861063    -0.73200
Cu105      Cu  0.74967122  0.78840802  0.98094000     1.04600
Cu106      Cu  0.78828369  0.74978019  0.98112765     1.04300
C107        C  0.73913600  0.73908461  0.93811604     0.93100
C108        C  0.79879722  0.79920504  0.02389441     0.92200
C109        C  0.79911655  0.79893878  0.93820297     0.84400
C110        C  0.73889345  0.73921252  0.02387512     0.90600
O111        O  0.98705731  0.72825424  0.72553696    -0.73100
O112        O  0.05179015  0.77468137  0.77103244    -0.74100
O113        O  0.98683165  0.77401231  0.77132980    -0.62700
O114        O  0.05202345  0.72885847  0.72530691    -0.71100
O115        O  0.05160171  0.76488313  0.68918402    -0.70700
O116        O  0.98642032  0.81012668  0.73529637    -0.61900
O117        O  0.05139379  0.81070782  0.73490858    -0.74400
O118        O  0.98662679  0.76436347  0.68949639    -0.73200
Cu119      Cu  0.01944444  0.75018060  0.74957238     1.04600
Cu120      Cu  0.01898908  0.78879206  0.71094787     1.04300
C121        C  0.97649741  0.73915347  0.70046959     0.93100
C122        C  0.06194041  0.79986377  0.75999773     0.92200
C123        C  0.97622409  0.79906171  0.76044676     0.84400
C124        C  0.06222636  0.73986445  0.70014268     0.90600
O125        O  0.76486544  0.98645383  0.69046981    -0.73100
O126        O  0.81059712  0.05166007  0.73595688    -0.74100
O127        O  0.81059455  0.98667993  0.73627382    -0.62700
O128        O  0.76486550  0.05142135  0.69015978    -0.71100
O129        O  0.72877124  0.05157730  0.72621375    -0.70700
O130        O  0.77449455  0.98681275  0.77232248    -0.61900
O131        O  0.77451829  0.05180149  0.77202512    -0.74400
O132        O  0.72875095  0.98661162  0.72650229    -0.73200
Cu133      Cu  0.78900599  0.01904533  0.71194860     1.04600
Cu134      Cu  0.75036325  0.01920630  0.75054111     1.04300
C135        C  0.73972375  0.97614004  0.70143029     0.93100
C136        C  0.79962295  0.06215758  0.76101567     0.92200
C137        C  0.79961385  0.97639162  0.76141582     0.84400
C138        C  0.73973775  0.06183646  0.70105296     0.90600
N139        N  0.62341453  0.71211477  0.15233504    -0.27500
N140        N  0.62338408  0.69076263  0.17389090    -0.35300
C141        C  0.60074989  0.69672970  0.19395065     0.00900
C142        C  0.58595691  0.72311579  0.18449084     0.06900
C143        C  0.60082022  0.73228023  0.15805668    -0.06200
H144        H  0.59604968  0.68336618  0.21434997     0.07600
H145        H  0.59618640  0.75255245  0.14447607     0.08800
Cu146      Cu  0.65518969  0.65576762  0.17630950     0.44200
Cu147      Cu  0.65518758  0.71421506  0.11734666     0.42000
Cu148      Cu  0.71397753  0.65595400  0.11776438     0.43900
N149        N  0.69046199  0.62423913  0.17432889    -0.34900
N150        N  0.71194035  0.62432171  0.15290203    -0.29100
C151        C  0.73216164  0.60181499  0.15878511    -0.05200
C152        C  0.72290243  0.58695798  0.18519365     0.07000
C153        C  0.69640695  0.60166994  0.19447263     0.00800
H154        H  0.75248680  0.59718375  0.14528544     0.08500
H155        H  0.68288974  0.59689277  0.21475183     0.07500
N156        N  0.71187483  0.69087128  0.08589191    -0.36300
N157        N  0.69033403  0.71222990  0.08574140    -0.28500
C158        C  0.69619049  0.73232270  0.06310980    -0.03700
C159        C  0.72270404  0.72308301  0.04841758     0.04900
C160        C  0.73206375  0.69674501  0.06335597     0.03000
H161        H  0.68262711  0.75256821  0.05830833     0.08100
H162        H  0.75245590  0.68332246  0.05878872     0.06900
N163        N  0.71276914  0.12363455  0.65239440    -0.27500
N164        N  0.69121339  0.12357893  0.67374673    -0.35300
C165        C  0.69705876  0.10102674  0.69392818     0.00900
C166        C  0.72357047  0.08628895  0.68476970     0.06900
C167        C  0.73294563  0.10110813  0.65837535    -0.06200
H168        H  0.68349597  0.09632490  0.71419471     0.07600
H169        H  0.75335325  0.09648513  0.64499759     0.08800
Cu170      Cu  0.65604151  0.15518207  0.67580132     0.44200
Cu171      Cu  0.71504991  0.15536527  0.61733268     0.42000
Cu172      Cu  0.65637891  0.21386413  0.61735642     0.43900
N173        N  0.62439936  0.19031611  0.67369708    -0.34900
N174        N  0.62454957  0.21179432  0.65227511    -0.29100
C175        C  0.60204902  0.23203223  0.65809713    -0.05200
C176        C  0.58712526  0.22278094  0.68446826     0.07000
C177        C  0.60178671  0.19626994  0.69378476     0.00800
H178        H  0.59751131  0.25239726  0.64462311     0.08500
H179        H  0.59699638  0.18279411  0.71408911     0.07500
N180        N  0.69148503  0.21192819  0.58572517    -0.36300
N181        N  0.71298345  0.19052342  0.58569292    -0.28500
C182        C  0.73312684  0.19650835  0.56313948    -0.03700
C183        C  0.72376983  0.22295980  0.54839203     0.04900
C184        C  0.69731673  0.23214910  0.56320866     0.03000
H185        H  0.75347439  0.18307092  0.55841890     0.08100
H186        H  0.68376593  0.25243913  0.55856125     0.06900
N187        N  0.19111348  0.62484058  0.67306472    -0.27500
N188        N  0.21247972  0.62476066  0.65153052    -0.35300
C189        C  0.23256644  0.60210893  0.65732595     0.00900
C190        C  0.22332007  0.58732312  0.68378575     0.06900
C191        C  0.19698108  0.60223254  0.69318457    -0.06200
H192        H  0.25280074  0.59733445  0.64373952     0.07600
H193        H  0.18353938  0.59757989  0.71354283     0.08800
Cu194      Cu  0.21448090  0.65640450  0.61639806     0.44200
Cu195      Cu  0.15613136  0.65665353  0.67521451     0.42000
Cu196      Cu  0.15580805  0.71510645  0.61639849     0.43900
N197        N  0.21225137  0.69138244  0.58459944    -0.34900
N198        N  0.19080383  0.71284370  0.58460102    -0.29100
C199        C  0.19662741  0.73292298  0.56195255    -0.05200
C200        C  0.22301363  0.72357887  0.54709656     0.07000
C201        C  0.23233728  0.69718590  0.56194919     0.00800
H202        H  0.18314201  0.75324652  0.55726049     0.08500
H203        H  0.25265049  0.68368596  0.55725964     0.07500
N204        N  0.12421509  0.71306845  0.65159134    -0.36300
N205        N  0.12435334  0.69167105  0.67309919    -0.28500
C206        C  0.10179662  0.69750080  0.69327534    -0.03700
C207        C  0.08684705  0.72384273  0.68395391     0.04900
C208        C  0.10155953  0.73313891  0.65746786     0.03000
H209        H  0.09719776  0.68401983  0.71362068     0.08100
H210        H  0.09673665  0.75339083  0.64392335     0.06900
N211        N  0.84724515  0.62437110  0.28787471    -0.27500
N212        N  0.82603056  0.62408788  0.30955729    -0.35300
C213        C  0.80605629  0.60131315  0.30384006     0.00900
C214        C  0.81522607  0.58666390  0.27727899     0.06900
C215        C  0.84139859  0.60177258  0.26774451    -0.06200
H216        H  0.78590926  0.59641008  0.31750912     0.07600
H217        H  0.85468971  0.59731224  0.24724436     0.08800
Cu218      Cu  0.82396615  0.65572331  0.34468317     0.44200
Cu219      Cu  0.88189858  0.65651055  0.28539589     0.42000
Cu220      Cu  0.88204452  0.71503331  0.34405082     0.43900
N221        N  0.82605351  0.69085351  0.37631370    -0.34900
N222        N  0.84729372  0.71252057  0.37609885    -0.29100
C223        C  0.84139835  0.73264664  0.39868847    -0.05200
C224        C  0.81517220  0.72312710  0.41371379     0.07000
C225        C  0.80602312  0.69657824  0.39903093    -0.08800
H226        H  0.85469764  0.75313629  0.40320063     0.08500
H227        H  0.78585136  0.68291835  0.40387287     0.07500
N228        N  0.91347733  0.71321407  0.30869945    -0.36300
N229        N  0.91340706  0.69178030  0.28722673    -0.28500
C230        C  0.93590954  0.69767730  0.26700576    -0.03700
C231        C  0.95075672  0.72409980  0.27626998     0.04900
C232        C  0.93603219  0.73337588  0.30275866     0.03000
H233        H  0.94059803  0.68413241  0.24671929     0.08100
H234        H  0.94083792  0.75362890  0.31631588     0.06900
O235        O  0.05079788  0.72841911  0.23530932    -0.73100
O236        O  0.98647609  0.77484102  0.18934415    -0.74100
O237        O  0.05143799  0.77420171  0.18956579    -0.62700
O238        O  0.98583035  0.72905733  0.23509216    -0.71100
O239        O  0.98601736  0.76512511  0.27117803    -0.70700
O240        O  0.05165008  0.81026501  0.22565565    -0.61900
O241        O  0.98667539  0.81091821  0.22542501    -0.74400
O242        O  0.05098602  0.76447410  0.27141199    -0.73200
Cu243      Cu  0.01862436  0.75035944  0.21105667     1.04600
Cu244      Cu  0.01884017  0.78896848  0.24969095     1.04300
C245        C  0.06118249  0.73927624  0.26046546     0.93100
C246        C  0.97629372  0.80005158  0.20027104     0.92200
C247        C  0.06202062  0.79921542  0.20057277     0.84400
C248        C  0.97545668  0.74009926  0.26017562     0.90600
N249        N  0.82582838  0.91497317  0.15225840    -0.27500
N250        N  0.84745339  0.91512131  0.17354072    -0.35300
C251        C  0.84160051  0.93766228  0.19373124     0.00900
C252        C  0.81501210  0.95230380  0.18465057     0.06900
C253        C  0.80559640  0.93743522  0.15829289    -0.06200
H254        H  0.85522683  0.94243304  0.21394496     0.07600
H255        H  0.78513178  0.94198779  0.14497201     0.08800
Cu256      Cu  0.88275602  0.88368135  0.17545223     0.44200
Cu257      Cu  0.82359024  0.88320367  0.11722163     0.42000
Cu258      Cu  0.88267063  0.82507065  0.11691021     0.43900
N259        N  0.91458246  0.84874417  0.17323903    -0.34900
N260        N  0.91454150  0.82729560  0.15178425    -0.29100
C261        C  0.93709617  0.80712441  0.15762553    -0.05200
C262        C  0.95193255  0.81639132  0.18404353     0.07000
C263        C  0.93717250  0.84284171  0.19336261     0.00800
H264        H  0.94168420  0.78675354  0.14417160     0.08500
H265        H  0.94183695  0.85627325  0.21373101     0.07500
N266        N  0.84734895  0.82676214  0.08550358    -0.36300
N267        N  0.82571797  0.84803395  0.08559199    -0.28500
C268        C  0.80548029  0.84191622  0.06315799    -0.03700
C269        C  0.81490590  0.81551200  0.04837023     0.04900
C270        C  0.84150212  0.80648930  0.06303287     0.03000
H271        H  0.78503374  0.85523772  0.05853982     0.08100
H272        H  0.85515936  0.78629139  0.05829818     0.06900
N273        N  0.71212243  0.91420895  0.30920593    -0.27500
N274        N  0.69067804  0.91421256  0.28774884    -0.35300
C275        C  0.69649916  0.93685715  0.26766144     0.00900
C276        C  0.72288892  0.95170953  0.27700273     0.06900
C277        C  0.73221555  0.93685032  0.30339470    -0.06200
H278        H  0.68298683  0.94157402  0.24736026     0.07600
H279        H  0.75251013  0.94156605  0.31691933     0.08800
Cu280      Cu  0.65566838  0.88245340  0.28564914     0.44200
Cu281      Cu  0.71419259  0.88245182  0.34423043     0.42000
Cu282      Cu  0.65555228  0.82369517  0.34420877     0.43900
N283        N  0.62392526  0.84742562  0.28769637    -0.34900
N284        N  0.62385258  0.82591702  0.30909433    -0.29100
C285        C  0.60118911  0.80587065  0.30315767    -0.05200
C286        C  0.58641509  0.81529960  0.27674712     0.07000
C287        C  0.60132995  0.84169310  0.26753426     0.00800
H288        H  0.59640870  0.78554046  0.31659898     0.08500
H289        H  0.59668761  0.85527404  0.24726541     0.07500
N290        N  0.69062154  0.82591480  0.37596003    -0.36300
N291        N  0.71204421  0.84740360  0.37595646    -0.28500
C292        C  0.73215535  0.84162059  0.39858934    -0.03700
C293        C  0.72288070  0.81521529  0.41344753     0.04900
C294        C  0.69649183  0.80583699  0.39860450     0.03000
H295        H  0.75244037  0.85516595  0.40328535     0.08100
H296        H  0.68302094  0.78550813  0.40332187     0.06900
O297        O  0.80981714  0.98700281  0.22611366    -0.73100
O298        O  0.76402374  0.05169031  0.27228044    -0.74100
O299        O  0.76409457  0.98671554  0.27192986    -0.62700
O300        O  0.80978291  0.05196488  0.22650698    -0.71100
O301        O  0.77372225  0.05210189  0.19041611    -0.70700
O302        O  0.72797757  0.98686163  0.23589492    -0.61900
O303        O  0.72796220  0.05184594  0.23618855    -0.74400
O304        O  0.77369525  0.98712591  0.19008238    -0.73200
Cu305      Cu  0.78819902  0.01933570  0.25048052     1.04600
Cu306      Cu  0.74956285  0.01949028  0.21187631     1.04300
C307        C  0.79883907  0.97673477  0.20095700     0.93100
C308        C  0.73891727  0.06212073  0.26134774     0.92200
C309        C  0.73898053  0.97636287  0.26094397     0.84400
C310        C  0.79883479  0.06244314  0.20143089     0.90600
N311        N  0.32674159  0.91495824  0.65090996    -0.27500
N312        N  0.34807042  0.91478801  0.67248147    -0.35300
C313        C  0.34228111  0.93742657  0.69257916     0.00900
C314        C  0.31602722  0.95244850  0.68313635     0.06900
C315        C  0.30675121  0.93770650  0.65666194    -0.06200
H316        H  0.35565727  0.94195774  0.71301369     0.07600
H317        H  0.28650593  0.94250946  0.64309613     0.08800
Cu318      Cu  0.38272838  0.88267343  0.67490548     0.44200
Cu319      Cu  0.32453173  0.88314713  0.61595731     0.42000
Cu320      Cu  0.38239649  0.82362299  0.61670211     0.43900
N321        N  0.41405191  0.84725410  0.67325058    -0.34900
N322        N  0.41395854  0.82563303  0.65196431    -0.29100
C323        C  0.43643894  0.80542512  0.65803195    -0.05200
C324        C  0.45126892  0.81486271  0.68441178     0.07000
C325        C  0.43657061  0.84142935  0.69347590     0.00800
H326        H  0.44111804  0.78503155  0.64464431     0.08500
H327        H  0.44137060  0.85512998  0.71363264     0.07500
N328        N  0.34756717  0.82613744  0.58469909    -0.36300
N329        N  0.32641481  0.84788962  0.58446239    -0.28500
C330        C  0.30634019  0.84221646  0.56176954    -0.03700
C331        C  0.31536469  0.81561613  0.54710963     0.04900
C332        C  0.34156700  0.80600547  0.56213396     0.03000
H333        H  0.28624443  0.85597564  0.55690057     0.08100
H334        H  0.35479513  0.78547538  0.55761455     0.06900
O335        O  0.22901792  0.98710454  0.73416843    -0.73100
O336        O  0.27469142  0.05237516  0.68877056    -0.74100
O337        O  0.27478217  0.98740213  0.68840096    -0.62700
O338        O  0.22896229  0.05205905  0.73458433    -0.71100
O339        O  0.26509122  0.05194293  0.77060870    -0.70700
O340        O  0.31084203  0.98724360  0.72449469    -0.61900
O341        O  0.31081352  0.05222527  0.72480070    -0.74400
O342        O  0.26507835  0.98696823  0.77025995    -0.73200
Cu343      Cu  0.25059446  0.01974353  0.71020714     1.04600
Cu344      Cu  0.28923251  0.01958914  0.74881004     1.04300
C345        C  0.23996771  0.97662502  0.75924289     0.93100
C346        C  0.29980618  0.06272723  0.69975535     0.92200
C347        C  0.29988980  0.97697300  0.69933292     0.84400
C348        C  0.23993777  0.06232140  0.75974440     0.90600
N349        N  0.19059231  0.82711371  0.87492721    -0.27500
N350        N  0.21225188  0.84835233  0.87479738    -0.35300
C351        C  0.23234769  0.84239643  0.89739455     0.00900
C352        C  0.22280143  0.81612644  0.91233670     0.06900
C353        C  0.19627804  0.80701457  0.89759186    -0.06200
H354        H  0.25282102  0.85569408  0.90198070     0.07600
H355        H  0.18260166  0.78683689  0.90236607     0.08800
Cu356      Cu  0.21464914  0.88316826  0.84283352     0.44200
Cu357      Cu  0.15554100  0.82523366  0.84324501     0.42000
Cu358      Cu  0.15590781  0.88336955  0.78411352     0.43900
N359        N  0.21272895  0.91471077  0.80760706    -0.34900
N360        N  0.19127784  0.91479857  0.78614681    -0.29100
C361        C  0.19727635  0.93734523  0.76599805    -0.05200
C362        C  0.22377422  0.95203663  0.77530147     0.07000
C363        C  0.23298487  0.93719113  0.80173296     0.00800
H364        H  0.18377681  0.94213607  0.74570558     0.08500
H365        H  0.25328707  0.94183005  0.81527295     0.07500
N366        N  0.12394284  0.84850988  0.78655208    -0.36300
N367        N  0.12385755  0.82725855  0.80820328    -0.28500
C368        C  0.10122127  0.80712937  0.80253117    -0.03700
C369        C  0.08643968  0.81621066  0.77602666     0.04900
C370        C  0.10132906  0.84251464  0.76647151     0.03000
H371        H  0.09650417  0.78693466  0.81619775     0.08100
H372        H  0.09671082  0.85579252  0.74599767     0.06900
N373        N  0.34801739  0.62397190  0.78725577    -0.27500
N374        N  0.32631524  0.62418577  0.80845300    -0.35300
C375        C  0.30607193  0.60174467  0.80238006     0.00900
C376        C  0.31555633  0.58682293  0.77607847     0.06900
C377        C  0.34220179  0.60141077  0.76707168    -0.06200
H378        H  0.28555305  0.59724735  0.81562885     0.07600
H379        H  0.35589134  0.59658957  0.74691854     0.08800
Cu380      Cu  0.32398912  0.65604021  0.84340101     0.44200
Cu381      Cu  0.38334554  0.65538621  0.78548103     0.42000
Cu382      Cu  0.38294512  0.71431183  0.84381602     0.43900
N383        N  0.32593892  0.69125553  0.87498763    -0.34900
N384        N  0.34751358  0.71258685  0.87512752    -0.29100
C385        C  0.34156240  0.73282970  0.89760229    -0.05200
C386        C  0.31495860  0.72372261  0.91220789     0.07000
C387        C  0.30563835  0.69730439  0.89737984     0.00800
H388        H  0.35516996  0.75305057  0.90239834     0.08500
H389        H  0.28523370  0.68390371  0.90196421     0.07500
N390        N  0.41496290  0.71193274  0.80905913    -0.36300
N391        N  0.41510859  0.69037601  0.78771021    -0.28500
C392        C  0.43775163  0.69621010  0.76763026    -0.03700
C393        C  0.45244631  0.72272522  0.77685925     0.04900
C394        C  0.43751411  0.73210376  0.80318668     0.03000
H395        H  0.44248748  0.68269040  0.74733783     0.08100
H396        H  0.44202487  0.75255792  0.81654237     0.06900
O397        O  0.30976625  0.76495441  0.01209400    -0.73100
O398        O  0.26400650  0.81080452  0.94726908    -0.74100
O399        O  0.26393608  0.81065629  0.01224159    -0.62700
O400        O  0.30975456  0.76501815  0.94714201    -0.71100
O401        O  0.27364190  0.72897634  0.94704907    -0.70700
O402        O  0.22792563  0.77451267  0.01219642    -0.61900
O403        O  0.22788044  0.77477385  0.94720952    -0.74400
O404        O  0.27376605  0.72879838  0.01201528    -0.73200
Cu405      Cu  0.28813177  0.78913307  0.97968802     1.04600
Cu406      Cu  0.24952732  0.75049426  0.97961249     1.04300
C407        C  0.29887244  0.73978645  0.02240262     0.93100
C408        C  0.23888118  0.79989611  0.93687430     0.92200
C409        C  0.23885823  0.79961404  0.02263742     0.84400
C410        C  0.29877842  0.73992144  0.93671479     0.90600
N411        N  0.82679652  0.34760433  0.58587841    -0.27500
N412        N  0.84843890  0.32634873  0.58562993    -0.35300
C413        C  0.84257456  0.30622702  0.56302169     0.00900
C414        C  0.81595499  0.31534696  0.54844535     0.06900
C415        C  0.80653964  0.34163989  0.56342659    -0.06200
H416        H  0.85622438  0.28605889  0.55814078     0.07600
H417        H  0.78607532  0.35497859  0.55893693     0.08800
Cu418      Cu  0.88376827  0.32456378  0.61704628     0.44200
Cu419      Cu  0.82464987  0.38252513  0.61774608     0.42000
Cu420      Cu  0.88366558  0.38305467  0.67599092     0.43900
N421        N  0.91564443  0.32685919  0.65193255    -0.34900
N422        N  0.91562665  0.34822765  0.67347507    -0.29100
C423        C  0.93826953  0.34233129  0.69354197    -0.05200
C424        C  0.95311975  0.31597245  0.68410740     0.07000
C425        C  0.93828599  0.30675258  0.65767275     0.00800
H426        H  0.94289273  0.35568613  0.71396998     0.08500
H427        H  0.94292500  0.28644096  0.64414655     0.07500
N428        N  0.84822555  0.41438393  0.67419647    -0.36300
N429        N  0.82665438  0.41418559  0.65286304    -0.28500
C430        C  0.80635889  0.43660433  0.65882041    -0.03700
C431        C  0.81566801  0.45151987  0.68518254     0.04900
C432        C  0.84226755  0.43693485  0.69435661     0.03000
H433        H  0.78596211  0.44114832  0.64539269     0.08100
H434        H  0.85586835  0.44180259  0.71456422     0.06900
O435        O  0.98768812  0.27442122  0.68935987    -0.73100
O436        O  0.05194983  0.22793343  0.73537820    -0.74100
O437        O  0.98698176  0.22862672  0.73511151    -0.62700
O438        O  0.05265901  0.27372691  0.68962279    -0.71100
O439        O  0.05285122  0.30979966  0.72570366    -0.70700
O440        O  0.98719379  0.26469524  0.77119660    -0.61900
O441        O  0.05215100  0.26401555  0.77145418    -0.74400
O442        O  0.98788739  0.31048031  0.72545838    -0.73200
Cu443      Cu  0.01981185  0.24990476  0.71109424     1.04600
Cu444      Cu  0.02003260  0.28851800  0.74972456     1.04300
C445        C  0.97750436  0.29962747  0.70030020     0.93100
C446        C  0.06232066  0.23879496  0.76053893     0.92200
C447        C  0.97660645  0.23968397  0.76018826     0.84400
C448        C  0.06322773  0.29874924  0.70062494     0.90600
N449        N  0.91437082  0.19155517  0.78715774    -0.27500
N450        N  0.91440454  0.21306008  0.80856353    -0.35300
C451        C  0.93704303  0.23313700  0.80265766     0.00900
C452        C  0.95185614  0.22374138  0.77626197     0.06900
C453        C  0.93697816  0.19733015  0.76701611    -0.06200
H454        H  0.94182728  0.25343448  0.81615581     0.07600
H455        H  0.94170024  0.18372657  0.74677688     0.08800
Cu456      Cu  0.88281279  0.21517236  0.84376961     0.44200
Cu457      Cu  0.88274784  0.15638275  0.78522199     0.42000
Cu458      Cu  0.82449944  0.15617507  0.84415510     0.43900
N459        N  0.84797693  0.21281444  0.87575201    -0.34900
N460        N  0.82665354  0.19122982  0.87587432    -0.29100
C461        C  0.80664909  0.19692895  0.89861995    -0.05200
C462        C  0.81589552  0.22337716  0.91342603     0.07000
C463        C  0.84215521  0.23286937  0.89843135     0.00800
H464        H  0.78644484  0.18330321  0.90342272     0.08500
H465        H  0.85555221  0.25327000  0.90305648     0.07500
N466        N  0.82654248  0.12439858  0.80914707    -0.36300
N467        N  0.84787668  0.12445884  0.78758094    -0.28500
C468        C  0.84203159  0.10177026  0.76754529    -0.03700
C469        C  0.81573990  0.08683058  0.77702932     0.04900
C470        C  0.80649766  0.10167997  0.80345509     0.03000
H471        H  0.85543873  0.09709912  0.74716823     0.08100
H472        H  0.78628249  0.09691758  0.81707273     0.06900
N473        N  0.69118126  0.41446074  0.78826093    -0.27500
N474        N  0.71254094  0.41463653  0.80980220    -0.35300
C475        C  0.73260227  0.43729354  0.80393507     0.00900
C476        C  0.72334041  0.45196762  0.77741746     0.06900
C477        C  0.69702149  0.43700084  0.76806830    -0.06200
H478        H  0.75286888  0.44209767  0.81747059     0.07600
H479        H  0.68361234  0.44152165  0.74765444     0.08800
Cu480      Cu  0.71465263  0.38296963  0.84489965     0.44200
Cu481      Cu  0.65635606  0.38251387  0.78605176     0.42000
Cu482      Cu  0.65634112  0.32379321  0.84448600     0.43900
N483        N  0.71260912  0.34777541  0.87646405    -0.34900
N484        N  0.69130898  0.32616399  0.87632110    -0.29100
C485        C  0.69726375  0.30599399  0.89885463    -0.05200
C486        C  0.72358517  0.31542834  0.91377025     0.07000
C487        C  0.73273194  0.34197079  0.89908103     0.00800
H488        H  0.68391688  0.28554931  0.90342173     0.08500
H489        H  0.75295037  0.35558549  0.90386252     0.07500
N490        N  0.62474969  0.32580321  0.80927654    -0.36300
N491        N  0.62478786  0.34732376  0.78789475    -0.28500
C492        C  0.60228575  0.34149730  0.76765623    -0.03700
C493        C  0.58746639  0.31502730  0.77680731     0.04900
C494        C  0.60220237  0.30565041  0.80325844     0.03000
H495        H  0.59762478  0.35508569  0.74739667     0.08100
H496        H  0.59745988  0.28530386  0.81668812     0.06900
O497        O  0.81074397  0.26430716  0.01350386    -0.73100
O498        O  0.76490167  0.31024709  0.94866484    -0.74100
O499        O  0.76497358  0.31010004  0.01362859    -0.62700
O500        O  0.81071955  0.26451553  0.94851637    -0.71100
O501        O  0.77469690  0.22838388  0.94847949    -0.70700
O502        O  0.72887190  0.27404727  0.01353434    -0.61900
O503        O  0.72888794  0.27410452  0.94858170    -0.74400
O504        O  0.77463084  0.22826378  0.01345132    -0.73200
Cu505      Cu  0.78911125  0.28856292  0.98108438     1.04600
Cu506      Cu  0.75050566  0.24992535  0.98101154     1.04300
C507        C  0.79975292  0.23918474  0.02384523     0.93100
C508        C  0.73979868  0.29926487  0.93826769     0.92200
C509        C  0.73983182  0.29915333  0.02395222     0.84400
C510        C  0.79977803  0.23941328  0.93808271     0.90600
N511        N  0.62362246  0.32705037  0.15161129    -0.27500
N512        N  0.62347008  0.34861136  0.17295636    -0.35300
C513        C  0.60084668  0.34276135  0.19305285     0.00900
C514        C  0.58617067  0.31623177  0.18383994     0.06900
C515        C  0.60109363  0.30685987  0.15750440    -0.06200
H516        H  0.59610863  0.35628465  0.21334229     0.07600
H517        H  0.59658867  0.28640130  0.14415384     0.08800
Cu518      Cu  0.65518485  0.38364234  0.17516100     0.44200
Cu519      Cu  0.65561184  0.32469989  0.11682183     0.42000
Cu520      Cu  0.71444734  0.38309156  0.11716029     0.43900
N521        N  0.69046714  0.41510173  0.17335281    -0.34900
N522        N  0.71213679  0.41492513  0.15212265    -0.29100
C523        C  0.73237529  0.43737166  0.15818841    -0.05200
C524        C  0.72292073  0.45225853  0.18451958     0.07000
C525        C  0.69629734  0.43764584  0.19355082     0.00800
H526        H  0.75287552  0.44189090  0.14491774     0.08500
H527        H  0.68263938  0.44243201  0.21373384     0.07500
N528        N  0.71256180  0.34784797  0.08560801    -0.36300
N529        N  0.69103027  0.32647301  0.08549287    -0.28500
C530        C  0.69702700  0.30621567  0.06304375    -0.03700
C531        C  0.72361738  0.31535708  0.04843306     0.04900
C532        C  0.73288083  0.34181206  0.06322881     0.03000
H533        H  0.68346419  0.28595862  0.05827337     0.08100
H534        H  0.75326162  0.35524589  0.05863476     0.06900
N535        N  0.32624977  0.62445382  0.15085524    -0.27500
N536        N  0.34759326  0.62465799  0.17241146    -0.35300
C537        C  0.34176223  0.60211891  0.19260695     0.00900
C538        C  0.31546468  0.58712447  0.18324352     0.06900
C539        C  0.30620605  0.60178054  0.15671549    -0.06200
H540        H  0.35515993  0.59761966  0.21303306     0.07600
H541        H  0.28595263  0.59695318  0.14316775     0.08800
Cu542      Cu  0.38237309  0.65664632  0.17463349     0.44200
Cu543      Cu  0.32413638  0.65610585  0.11575010     0.42000
Cu544      Cu  0.38238204  0.71535029  0.11616481     0.43900
N545        N  0.41389687  0.69187028  0.17280346    -0.34900
N546        N  0.41393740  0.71338407  0.15141444    -0.29100
C547        C  0.43646695  0.73355318  0.15744676    -0.05200
C548        C  0.45118659  0.72419176  0.18391315     0.07000
C549        C  0.43637742  0.69771612  0.19305884     0.00800
H550        H  0.44121532  0.75389368  0.14400977     0.08500
H551        H  0.44103694  0.68412980  0.21332034     0.07500
N552        N  0.34742048  0.71292666  0.08432018    -0.36300
N553        N  0.32614391  0.69129192  0.08418134    -0.28500
C554        C  0.30600545  0.69707468  0.06157254    -0.03700
C555        C  0.31511625  0.72362782  0.04688309     0.04900
C556        C  0.34143426  0.73309018  0.06178952     0.03000
H557        H  0.28579740  0.68344080  0.05680160     0.08100
H558        H  0.35475229  0.75355410  0.05722336     0.06900
N559        N  0.62480115  0.21342713  0.30869740    -0.27500
N560        N  0.62471639  0.19180149  0.28741610    -0.35300
C561        C  0.60216878  0.19758962  0.26721251     0.00900
C562        C  0.58744200  0.22413657  0.27628751     0.06900
C563        C  0.60228651  0.23360169  0.30264892    -0.06200
H564        H  0.59736745  0.18387819  0.24706385     0.07600
H565        H  0.59759259  0.25399154  0.31603717     0.08800
Cu566      Cu  0.65607744  0.15641852  0.28575039     0.44200
Cu567      Cu  0.65638353  0.21548015  0.34393634     0.42000
Cu568      Cu  0.71425495  0.15595537  0.34472091     0.43900
N569        N  0.69073973  0.12431241  0.28818634    -0.34900
N570        N  0.71206202  0.12414235  0.30976448    -0.29100
C571        C  0.73205309  0.10139257  0.30401754    -0.05200
C572        C  0.72278285  0.08665030  0.27754030     0.07000
C573        C  0.69653265  0.10167322  0.26809109     0.00800
H574        H  0.75229343  0.09658702  0.31758979     0.08500
H575        H  0.68315975  0.09714088  0.24765450     0.07500
N576        N  0.71235217  0.19122666  0.37620460    -0.36300
N577        N  0.69120069  0.21297976  0.37595030    -0.28500
C578        C  0.69718617  0.23311734  0.39851471    -0.03700
C579        C  0.72337825  0.22350992  0.41355756     0.04900
C580        C  0.73241184  0.19690573  0.39890893     0.03000
H581        H  0.68395340  0.25364722  0.40302297     0.08100
H582        H  0.75250313  0.18314637  0.40379544     0.06900
N583        N  0.32603161  0.12471131  0.30776178    -0.27500
N584        N  0.34762425  0.12451791  0.28645124    -0.35300
C585        C  0.34164254  0.10202588  0.26623101     0.00900
C586        C  0.31500570  0.08747047  0.27533849     0.06900
C587        C  0.30569722  0.10234331  0.30172665    -0.06200
H588        H  0.35526251  0.09716972  0.24603942     0.07600
H589        H  0.28528907  0.09779441  0.31512803     0.08800
Cu590      Cu  0.38315902  0.15574913  0.28475285     0.44200
Cu591      Cu  0.32408524  0.15627430  0.34298547     0.42000
Cu592      Cu  0.38356151  0.21393098  0.34388648     0.43900
N593        N  0.41520951  0.19049684  0.28729446    -0.34900
N594        N  0.41533070  0.21177139  0.30892607    -0.29100
C595        C  0.43796206  0.23189090  0.30319193    -0.05200
C596        C  0.45268699  0.22277348  0.27666610     0.07000
C597        C  0.43778227  0.19646198  0.26717290     0.00800
H598        H  0.44266475  0.25214244  0.31678738     0.08500
H599        H  0.44231495  0.18319450  0.24666888     0.07500
N600        N  0.34822430  0.21222567  0.37526372    -0.36300
N601        N  0.32645086  0.19110244  0.37495800    -0.28500
C602        C  0.30621309  0.19716705  0.39739887    -0.03700
C603        C  0.31577892  0.22338975  0.41241573     0.04900
C604        C  0.34246378  0.23235892  0.39788169     0.03000
H605        H  0.28564585  0.18396687  0.40183637     0.08100
H606        H  0.35622288  0.25245151  0.40278274     0.06900
N607        N  0.21204673  0.91455053  0.15160874    -0.27500
N608        N  0.19074542  0.91445816  0.17320674    -0.35300
C609        C  0.19658779  0.93715669  0.19323233     0.00900
C610        C  0.22284319  0.95213523  0.18370630     0.06900
C611        C  0.23206797  0.93729690  0.15726931    -0.06200
H612        H  0.18320072  0.94181412  0.21362582     0.07600
H613        H  0.25225194  0.94209193  0.14361654     0.08800
Cu614      Cu  0.15590742  0.88249741  0.17558904     0.44200
Cu615      Cu  0.21406843  0.88279681  0.11658555     0.42000
Cu616      Cu  0.15577209  0.82378382  0.11694092     0.43900
N617        N  0.12426549  0.84734223  0.17361573    -0.34900
N618        N  0.12420172  0.82586873  0.15217760    -0.29100
C619        C  0.10155271  0.80579883  0.15807297    -0.05200
C620        C  0.08676376  0.81516743  0.18449337     0.07000
C621        C  0.10166745  0.84155491  0.19376446     0.00800
H622        H  0.09674559  0.78552264  0.14455121     0.08500
H623        H  0.09697104  0.85513206  0.21402748     0.07500
N624        N  0.19061871  0.82616662  0.08496105    -0.36300
N625        N  0.21193385  0.84775950  0.08485396    -0.28500
C626        C  0.23195260  0.84207823  0.06211647    -0.03700
C627        C  0.22272637  0.81563183  0.04729763     0.04900
C628        C  0.19646178  0.80612260  0.06227688     0.03000
H629        H  0.25215281  0.85571504  0.05732859     0.08100
H630        H  0.18307642  0.78571777  0.05763759     0.06900
N631        N  0.41419466  0.82742879  0.30848054    -0.27500
N632        N  0.41430020  0.84887198  0.28702334    -0.35300
C633        C  0.43690471  0.84291458  0.26692785     0.00900
C634        C  0.45160479  0.81643563  0.27627409     0.06900
C635        C  0.43671417  0.80720832  0.30267211    -0.06200
H636        H  0.44165567  0.85635791  0.24659301     0.07600
H637        H  0.44128103  0.78686529  0.31616918     0.08800
Cu638      Cu  0.38259897  0.88394922  0.28487319     0.44200
Cu639      Cu  0.38238078  0.82535834  0.34341144     0.42000
Cu640      Cu  0.32359052  0.88373582  0.34334302     0.43900
N641        N  0.34740289  0.91552538  0.28692139    -0.34900
N642        N  0.32584951  0.91546091  0.30827609    -0.29100
C643        C  0.30566198  0.93797763  0.30229663    -0.05200
C644        C  0.31502747  0.95279965  0.27590082     0.07000
C645        C  0.34154470  0.93807365  0.26673958     0.00800
H646        H  0.28525367  0.94259179  0.31567648     0.08500
H647        H  0.35510371  0.94278158  0.24647182     0.07500
N648        N  0.32569555  0.84859591  0.37499931    -0.36300
N649        N  0.34723697  0.82723452  0.37500162    -0.28500
C650        C  0.34141736  0.80700831  0.39751685    -0.03700
C651        C  0.31492825  0.81615082  0.41229713     0.04900
C652        C  0.30553760  0.84257933  0.39753032     0.03000
H653        H  0.35500380  0.78674806  0.40218951     0.08100
H654        H  0.28515885  0.85597926  0.40222264     0.06900
O655        O  0.22793528  0.05233843  0.22437410    -0.73100
O656        O  0.27371507  0.98764688  0.27051182    -0.74100
O657        O  0.27367655  0.05261298  0.27016573    -0.62700
O658        O  0.22796894  0.98735396  0.22473739    -0.71100
O659        O  0.26403528  0.98720780  0.18865659    -0.70700
O660        O  0.30978014  0.05245836  0.23412243    -0.61900
O661        O  0.30979860  0.98749276  0.23444694    -0.74400
O662        O  0.26402342  0.05219846  0.18831369    -0.73200
Cu663      Cu  0.24954878  0.01999722  0.24871309     1.04600
Cu664      Cu  0.28817920  0.01983429  0.21010835     1.04300
C665        C  0.23890518  0.06261817  0.19922359     0.93100
C666        C  0.29884468  0.97723946  0.25961524     0.92200
C667        C  0.29881060  0.06293335  0.25919500     0.84400
C668        C  0.23894341  0.97684073  0.19968592     0.90600
N669        N  0.32666436  0.19168027  0.58474899    -0.27500
N670        N  0.34807727  0.21317875  0.58473115    -0.35300
C671        C  0.34219194  0.23323945  0.56207573     0.00900
C672        C  0.31580458  0.22383846  0.54724185     0.06900
C673        C  0.30654545  0.19743879  0.56211674    -0.06200
H674        H  0.35565206  0.25357185  0.55734326     0.07600
H675        H  0.28626667  0.18388008  0.55743223     0.08800
Cu676      Cu  0.38315980  0.21542676  0.61647362     0.44200
Cu677      Cu  0.32454309  0.15664675  0.61648405     0.42000
Cu678      Cu  0.38311453  0.15663488  0.67500902     0.43900
N679        N  0.41488186  0.21320682  0.65157483    -0.34900
N680        N  0.41483379  0.19168509  0.67296009    -0.29100
C681        C  0.43742828  0.19742534  0.69312109    -0.05200
C682        C  0.45231845  0.22383757  0.68392239     0.07000
C683        C  0.43753040  0.23326903  0.65751939     0.00800
H684        H  0.44208334  0.18383874  0.71338300     0.08500
H685        H  0.44228758  0.25361410  0.64409235     0.07500
N686        N  0.34810292  0.12487522  0.67293572    -0.36300
N687        N  0.32664188  0.12488612  0.65149572    -0.28500
C688        C  0.30654998  0.10224742  0.65731545    -0.03700
C689        C  0.31589292  0.08738205  0.68369673     0.04900
C690        C  0.34229240  0.10222751  0.69302309     0.03000
H691        H  0.28624476  0.09753837  0.64380413     0.08100
H692        H  0.35581840  0.09750371  0.71331344     0.06900
N693        N  0.19127823  0.41462549  0.67279714    -0.27500
N694        N  0.21248549  0.41491398  0.65110827    -0.35300
C695        C  0.23244855  0.43770228  0.65680906     0.00900
C696        C  0.22328009  0.45235592  0.68336763     0.06900
C697        C  0.19711810  0.43723587  0.69291657    -0.06200
H698        H  0.25259182  0.44260664  0.64313513     0.07600
H699        H  0.18383622  0.44169118  0.71342350     0.08800
Cu700      Cu  0.21456866  0.38325005  0.61601439     0.44200
Cu701      Cu  0.15666981  0.38243768  0.67530435     0.42000
Cu702      Cu  0.15666027  0.32377589  0.61675531     0.43900
N703        N  0.21255319  0.34809059  0.58441773    -0.34900
N704        N  0.19137489  0.32636343  0.58466850    -0.29100
C705        C  0.19729806  0.30624964  0.56207545    -0.05200
C706        C  0.22347860  0.31583989  0.54701300     0.07000
C707        C  0.23257249  0.34241612  0.56167794     0.00800
H708        H  0.18404916  0.28572304  0.55758333     0.08500
H709        H  0.25269680  0.35613455  0.55680368     0.07500
N710        N  0.12521984  0.32561233  0.65210297    -0.36300
N711        N  0.12524130  0.34709212  0.67353070    -0.28500
C712        C  0.10273558  0.34120134  0.69374997    -0.03700
C713        C  0.08793460  0.31473788  0.68453050     0.04900
C714        C  0.10269070  0.30542941  0.65807065     0.03000
H715        H  0.09800536  0.35478758  0.71399895     0.08100
H716        H  0.09791775  0.28514644  0.64454670     0.06900
N717        N  0.19083887  0.41548544  0.28707293    -0.27500
N718        N  0.21239283  0.41540698  0.30842897    -0.35300
C719        C  0.23255441  0.43795808  0.30249322     0.00900
C720        C  0.22317207  0.45281779  0.27612437     0.06900
C721        C  0.19667127  0.43807699  0.26693346    -0.06200
H722        H  0.25296787  0.44256245  0.31587678     0.07600
H723        H  0.18311119  0.44279926  0.24666511     0.08800
Cu724      Cu  0.21470369  0.38359491  0.34341089     0.44200
Cu725      Cu  0.15569475  0.38385791  0.28496750     0.42000
Cu726      Cu  0.15608352  0.32506783  0.34337366     0.43900
N727        N  0.21274356  0.34836227  0.37497055    -0.34900
N728        N  0.19126555  0.32693564  0.37494657    -0.29100
C729        C  0.19716332  0.30669075  0.39742994    -0.05200
C730        C  0.22363938  0.31589061  0.41221025     0.07000
C731        C  0.23293693  0.34236955  0.39747674     0.00800
H732        H  0.18362904  0.28639173  0.40209398     0.08500
H733        H  0.25326677  0.35584036  0.40219291     0.07500
N734        N  0.12419900  0.32723969  0.30849087    -0.36300
N735        N  0.12403778  0.34874239  0.28709171    -0.28500
C736        C  0.10138924  0.34283566  0.26702661    -0.03700
C737        C  0.08671349  0.31633073  0.27633136     0.04900
C738        C  0.10166664  0.30703370  0.30267326     0.03000
H739        H  0.09658693  0.35633727  0.24674196     0.08100
H740        H  0.09713085  0.28665394  0.31612454     0.06900
N741        N  0.82607698  0.12434606  0.15305103    -0.27500
N742        N  0.84748677  0.12431301  0.17455210    -0.35300
C743        C  0.84148778  0.10177309  0.19470891     0.00900
C744        C  0.81502997  0.08703076  0.18536981     0.06900
C745        C  0.80584536  0.10183901  0.15890777    -0.06200
H746        H  0.85495217  0.09702755  0.21503526     0.07600
H747        H  0.78557181  0.09716107  0.14533830     0.08800
Cu748      Cu  0.88278404  0.15582200  0.17662746     0.44200
Cu749      Cu  0.82416313  0.15587501  0.11781192     0.42000
Cu750      Cu  0.88309436  0.21400454  0.11751891     0.43900
N751        N  0.91470380  0.19072571  0.17421104    -0.34900
N752        N  0.91477204  0.21199029  0.15257211    -0.29100
C753        C  0.93740656  0.23212186  0.15824627    -0.05200
C754        C  0.95220439  0.22302758  0.18473816     0.07000
C755        C  0.93732483  0.19671565  0.19428503     0.00800
H756        H  0.94211953  0.25231983  0.14458364     0.08500
H757        H  0.94196403  0.18341944  0.21474241     0.07500
N758        N  0.84807031  0.21204326  0.08580486    -0.36300
N759        N  0.82647728  0.19073627  0.08589217    -0.28500
C760        C  0.80637657  0.19665729  0.06328893    -0.03700
C761        C  0.81585180  0.22297354  0.04838419     0.04900
C762        C  0.84233805  0.23214898  0.06315824     0.03000
H763        H  0.78594918  0.18330021  0.05867118     0.08100
H764        H  0.85595608  0.25237389  0.05841604     0.06900
N765        N  0.91430259  0.34751146  0.28758912    -0.27500
N766        N  0.91449754  0.32616451  0.30914642    -0.35300
C767        C  0.93718397  0.30612110  0.30329706     0.00900
C768        C  0.95185993  0.31538395  0.27677900     0.06900
C769        C  0.93685543  0.34167783  0.26740962    -0.06200
H770        H  0.94205019  0.28590545  0.31688070     0.07600
H771        H  0.94140922  0.35511648  0.24702620     0.08800
Cu772      Cu  0.88292957  0.32414478  0.34436298     0.44200
Cu773      Cu  0.88244760  0.38245468  0.28541399     0.42000
Cu774      Cu  0.82415675  0.38274194  0.34430773     0.43900
N775        N  0.84792657  0.32636828  0.37615496    -0.34900
N776        N  0.82644502  0.34779546  0.37613962    -0.29100
C777        C  0.80635556  0.34196348  0.39877921    -0.05200
C778        C  0.81571019  0.31558556  0.41364053     0.07000
C779        C  0.84212045  0.30628169  0.39880221     0.00800
H780        H  0.78601344  0.35542697  0.40344873     0.08500
H781        H  0.85563092  0.28597640  0.40350063     0.07500
N782        N  0.82608572  0.41432166  0.30911184    -0.36300
N783        N  0.84742653  0.41422469  0.28755203    -0.28500
C784        C  0.84152332  0.43680264  0.26740949    -0.03700
C785        C  0.81518745  0.45170980  0.27681898     0.04900
C786        C  0.80597890  0.43695395  0.30330857     0.03000
H787        H  0.85494649  0.44144412  0.24703660     0.08100
H788        H  0.78576433  0.44174378  0.31691887     0.06900
O789        O  0.05208112  0.27483235  0.27122623    -0.73100
O790        O  0.98727398  0.22851136  0.22584130    -0.74100
O791        O  0.05225233  0.22905942  0.22543517    -0.62700
O792        O  0.98710556  0.27434205  0.27156056    -0.71100
O793        O  0.98668365  0.31035598  0.23542702    -0.70700
O794        O  0.05185040  0.26516967  0.18939770    -0.61900
O795        O  0.98688773  0.26453084  0.18971054    -0.74400
O796        O  0.05165324  0.31093506  0.23517908    -0.73200
Cu797      Cu  0.01969985  0.25041414  0.24978983     1.04600
Cu798      Cu  0.01925055  0.28901824  0.21115806     1.04300
C799        C  0.06221807  0.30003564  0.26024392     0.93100
C800        C  0.97672368  0.23935837  0.20075440     0.92200
C801        C  0.06245073  0.24011790  0.20028267     0.84400
C802        C  0.97648249  0.29935880  0.26059589     0.90600
N803        N  0.19061509  0.62468417  0.28648928    -0.27500
N804        N  0.21219539  0.62489659  0.30781352    -0.35300
C805        C  0.23249780  0.60248482  0.30184991     0.00900
C806        C  0.22318175  0.58756057  0.27549415     0.06900
C807        C  0.19657329  0.60213350  0.26632991    -0.06200
H808        H  0.25289935  0.59794696  0.31527222     0.07600
H809        H  0.18296127  0.59725287  0.24613304     0.08800
Cu810      Cu  0.21418086  0.65655215  0.34294093     0.44200
Cu811      Cu  0.15514222  0.65597301  0.28471271     0.42000
Cu812      Cu  0.15491109  0.71436914  0.34373818     0.43900
N813        N  0.21196532  0.69144385  0.37484145    -0.34900
N814        N  0.19027009  0.71264545  0.37512477    -0.29100
C815        C  0.19610774  0.73277041  0.39773801    -0.05200
C816        C  0.22276353  0.72370794  0.41228353     0.07000
C817        C  0.23222765  0.69744525  0.39727843     0.00800
H818        H  0.18241508  0.75290379  0.40264140     0.08500
H819        H  0.25273095  0.68415688  0.40173808     0.07500
N820        N  0.12305364  0.71207288  0.30883456    -0.36300
N821        N  0.12311966  0.69073708  0.28726021    -0.28500
C822        C  0.10048013  0.69662545  0.26718748    -0.03700
C823        C  0.08558261  0.72294697  0.27665024     0.04900
C824        C  0.10038485  0.73215250  0.30310796     0.03000
H825        H  0.09589257  0.68329369  0.24673635     0.08100
H826        H  0.09570560  0.75243767  0.31665986     0.06900
N827        N  0.21222959  0.19169735  0.08431971    -0.27500
N828        N  0.19096484  0.21334324  0.08446301    -0.35300
C829        C  0.19698123  0.23352248  0.06194499     0.00900
C830        C  0.22330519  0.22405087  0.04704678     0.06900
C831        C  0.23238451  0.19748479  0.06173115    -0.06200
H832        H  0.18366523  0.25398175  0.05736189     0.07600
H833        H  0.25256646  0.18382238  0.05694692     0.08800
Cu834      Cu  0.15593870  0.21566295  0.11627086     0.44200
Cu835      Cu  0.21418529  0.15641716  0.11579294     0.42000
Cu836      Cu  0.15586293  0.15666153  0.17452303     0.43900
N837        N  0.12431982  0.21348470  0.15147615    -0.34900
N838        N  0.12433702  0.19188117  0.17277714    -0.29100
C839        C  0.10182967  0.19763305  0.19303060    -0.05200
C840        C  0.08702130  0.22413809  0.18397623     0.07000
C841        C  0.10177190  0.23361311  0.15756550     0.00800
H842        H  0.09715702  0.18396594  0.21323435     0.08500
H843        H  0.09703980  0.25401486  0.14421483     0.07500
N844        N  0.19065015  0.12469330  0.17225071    -0.36300
N845        N  0.21203790  0.12459034  0.15074223    -0.28500
C846        C  0.23208134  0.10190141  0.15655369    -0.03700
C847        C  0.22277233  0.08713244  0.18300356     0.04900
C848        C  0.19644896  0.10207730  0.19236850     0.03000
H849        H  0.25236913  0.09714760  0.14304046     0.08100
H850        H  0.18301660  0.09749645  0.21274928     0.06900
N851        N  0.32623846  0.41473625  0.15177510    -0.27500
N852        N  0.34749705  0.41454939  0.17341990    -0.35300
C853        C  0.34163197  0.43718520  0.19351087     0.00900
C854        C  0.31540703  0.45221432  0.18398042     0.06900
C855        C  0.30622677  0.43747605  0.15747358    -0.06200
H856        H  0.35498385  0.44176598  0.21395016     0.07600
H857        H  0.28607623  0.44233898  0.14378820     0.08800
Cu858      Cu  0.38230757  0.38254942  0.17578208     0.44200
Cu859      Cu  0.32421682  0.38313543  0.11661381     0.42000
Cu860      Cu  0.38245319  0.32409754  0.11695011     0.43900
N861        N  0.41390845  0.34735470  0.17373885    -0.34900
N862        N  0.41396599  0.32596115  0.15222331    -0.29100
C863        C  0.43658150  0.30583626  0.15805850    -0.05200
C864        C  0.45136178  0.31509046  0.18452172     0.07000
C865        C  0.43648484  0.34146364  0.19388070     0.00800
H866        H  0.44138230  0.28561509  0.14445446     0.08500
H867        H  0.44119446  0.35496770  0.21419072     0.07500
N868        N  0.34769608  0.32659326  0.08491143    -0.36300
N869        N  0.32638208  0.34818396  0.08479164    -0.28500
C870        C  0.30639442  0.34251551  0.06201650    -0.03700
C871        C  0.31565299  0.31607824  0.04719883     0.04900
C872        C  0.34189350  0.30656750  0.06220938     0.03000
H873        H  0.28618333  0.35613119  0.05722333     0.08100
H874        H  0.35527330  0.28615626  0.05759872     0.06900
N875        N  0.19122174  0.12381057  0.78726067    -0.27500
N876        N  0.21290984  0.12403756  0.80847832    -0.35300
C877        C  0.23319154  0.10163328  0.80239709     0.00900
C878        C  0.22374558  0.08672397  0.77607356     0.06900
C879        C  0.19708614  0.10127891  0.76706300    -0.06200
H880        H  0.25370742  0.09714822  0.81566201     0.07600
H881        H  0.18341377  0.09645371  0.74689352     0.08800
Cu882      Cu  0.21516106  0.15583368  0.84349043     0.44200
Cu883      Cu  0.15581977  0.15514347  0.78542836     0.42000
Cu884      Cu  0.15595709  0.21383272  0.84388430     0.43900
N885        N  0.21299284  0.19099195  0.87513100    -0.34900
N886        N  0.19131767  0.21221835  0.87524787    -0.29100
C887        C  0.19714086  0.23249447  0.89772232    -0.05200
C888        C  0.22376615  0.22351861  0.91236013     0.07000
C889        C  0.23323445  0.19714070  0.89755212     0.00800
H890        H  0.18344371  0.25265991  0.90247970     0.08500
H891        H  0.25371101  0.18385771  0.90214930     0.07500
N892        N  0.12404637  0.21155027  0.80905334    -0.36300
N893        N  0.12398195  0.19007127  0.78762931    -0.28500
C894        C  0.10139064  0.19596416  0.76750365    -0.03700
C895        C  0.08665526  0.22244004  0.77679054     0.04900
C896        C  0.10150539  0.23172987  0.80319219     0.03000
H897        H  0.09671861  0.18251677  0.74714752     0.08100
H898        H  0.09694652  0.25212996  0.81661199     0.06900
N899        N  0.34822304  0.32680568  0.87486510    -0.27500
N900        N  0.32666908  0.34815114  0.87471880    -0.35300
C901        C  0.30650571  0.34228026  0.89727814     0.00900
C902        C  0.31589713  0.31595915  0.91222750     0.06900
C903        C  0.34240099  0.30672474  0.89751609    -0.06200
H904        H  0.28611228  0.35569633  0.90185889     0.07600
H905        H  0.35598489  0.28649413  0.90232253     0.08800
Cu906      Cu  0.32453162  0.38306482  0.84284103     0.44200
Cu907      Cu  0.38335943  0.32483659  0.84325170     0.42000
Cu908      Cu  0.38339232  0.38334768  0.78436161     0.43900
N909        N  0.32658131  0.41472658  0.80772794    -0.34900
N910        N  0.34808571  0.41484487  0.78632695    -0.29100
C911        C  0.34214163  0.43742224  0.76619145    -0.05200
C912        C  0.31562091  0.45210361  0.77544889     0.07000
C913        C  0.30634595  0.43721943  0.80183700     0.00800
H914        H  0.35567733  0.44222544  0.74593064     0.08500
H915        H  0.28599968  0.44182106  0.81531511     0.07500
N916        N  0.41520947  0.34835662  0.78676433    -0.36300
N917        N  0.41516173  0.32698022  0.80829595    -0.28500
C918        C  0.43776816  0.30682773  0.80257866    -0.03700
C919        C  0.45265902  0.31602405  0.77617155     0.04900
C920        C  0.43786793  0.34241639  0.76672269     0.03000
H921        H  0.44239333  0.28654332  0.81614422     0.08100
H922        H  0.44258852  0.35580387  0.74634367     0.06900
O923        O  0.22884666  0.26497841  0.94711439    -0.73100
O924        O  0.27449881  0.31099176  0.01207792    -0.74100
O925        O  0.27459178  0.31079853  0.94708863    -0.62700
O926        O  0.22867898  0.26525963  0.01208345    -0.71100
O927        O  0.26469627  0.22912489  0.01222400    -0.70700
O928        O  0.31071461  0.27476919  0.94728136    -0.61900
O929        O  0.31050998  0.27485000  0.01225489    -0.74400
O930        O  0.26498453  0.22896287  0.94727053    -0.73200
Cu931      Cu  0.25038419  0.28928431  0.97958047     1.04600
Cu932      Cu  0.28899981  0.25065962  0.97976392     1.04300
C933        C  0.23986506  0.23984025  0.93683214     0.93100
C934        C  0.29955719  0.29999311  0.02256602     0.92200
C935        C  0.29974114  0.29984110  0.93679896     0.84400
C936        C  0.23956843  0.24014254  0.02252499     0.90600
O937        O  0.27420394  0.55221654  0.18857731    -0.73100
O938        O  0.22840465  0.48752871  0.23468935    -0.74100
O939        O  0.22841469  0.55249258  0.23433472    -0.62700
O940        O  0.27419957  0.48724802  0.18894292    -0.71100
O941        O  0.31024929  0.48739891  0.22504510    -0.70700
O942        O  0.26449305  0.55267244  0.27040814    -0.61900
O943        O  0.26446497  0.48769818  0.27078198    -0.74400
O944        O  0.31027329  0.55238615  0.22466137    -0.73200
Cu945      Cu  0.25003638  0.51986522  0.21036160     1.04600
Cu946      Cu  0.28864377  0.52004864  0.24899469     1.04300
C947        C  0.29931835  0.56264203  0.19949349     0.93100
C948        C  0.23934734  0.47727837  0.25986425     0.92200
C949        C  0.23937080  0.56298958  0.25940418     0.84400
C950        C  0.29929127  0.47689148  0.19998179     0.90600
O951        O  0.48722766  0.26436094  0.27139256    -0.73100
O952        O  0.55145633  0.31082381  0.22526195    -0.74100
O953        O  0.48649761  0.31013391  0.22562681    -0.62700
O954        O  0.55218381  0.26512064  0.27109318    -0.71100
O955        O  0.55234697  0.22897397  0.23508582    -0.70700
O956        O  0.48667890  0.27408360  0.18952321    -0.61900
O957        O  0.55164979  0.27468216  0.18924587    -0.74400
O958        O  0.48738469  0.22831021  0.23528520    -0.73200
Cu959      Cu  0.51933334  0.28888298  0.24961333     1.04600
Cu960      Cu  0.51952477  0.25023952  0.21101282     1.04300
C961        C  0.47703427  0.23915270  0.26045638     0.93100
C962        C  0.56182577  0.29991674  0.20011817     0.92200
C963        C  0.47610655  0.29909574  0.20055153     0.84400
C964        C  0.56273681  0.24007565  0.26014295     0.90600
O965        O  0.31058339  0.26499985  0.51221021    -0.73100
O966        O  0.26490729  0.31061223  0.44710474    -0.74100
O967        O  0.26476971  0.31073494  0.51207107    -0.62700
O968        O  0.31064377  0.26477740  0.44724385    -0.71100
O969        O  0.27449674  0.22876808  0.44724998    -0.70700
O970        O  0.22875578  0.27459255  0.51211291    -0.61900
O971        O  0.22877789  0.27458714  0.44714300    -0.74400
O972        O  0.27455826  0.22887051  0.51222455    -0.73200
Cu973      Cu  0.28899885  0.28905331  0.47965236     1.04600
Cu974      Cu  0.25037613  0.25043276  0.47968069     1.04300
C975        C  0.29964664  0.23989184  0.52262353     0.93100
C976        C  0.23977540  0.29968363  0.43674011     0.92200
C977        C  0.23967060  0.29973730  0.52246102     0.84400
C978        C  0.29964511  0.23965767  0.43689508     0.90600
O979        O  0.26420694  0.72874696  0.51204922    -0.73100
O980        O  0.30985303  0.77474949  0.44710482    -0.74100
O981        O  0.31001652  0.77446857  0.51207720    -0.62700
O982        O  0.26411208  0.72894412  0.44707629    -0.71100
O983        O  0.22798114  0.76496556  0.44726623    -0.70700
O984        O  0.27400947  0.81061381  0.51222239    -0.61900
O985        O  0.27373071  0.81078024  0.44725444    -0.74400
O986        O  0.22818523  0.76487800  0.51223174    -0.73200
Cu987      Cu  0.28831833  0.75045538  0.47956603     1.04600
Cu988      Cu  0.24970481  0.78908208  0.47974959     1.04300
C989        C  0.23913570  0.73972523  0.52252362     0.93100
C990        C  0.29883994  0.79988293  0.43680993     0.92200
C991        C  0.29912522  0.79957762  0.52253558     0.84400
C992        C  0.23894970  0.73988363  0.43679973     0.90600
O993        O  0.81053864  0.27425564  0.44847752    -0.73100
O994        O  0.76496808  0.22831285  0.51342487    -0.74100
O995        O  0.76471776  0.22851207  0.44845615    -0.62700
O996        O  0.81072381  0.27411666  0.51344218    -0.71100
O997        O  0.77460667  0.31015216  0.51364035    -0.70700
O998        O  0.72870450  0.26465105  0.44860845    -0.61900
O999        O  0.72885841  0.26435607  0.51358512    -0.74400
O1000       O  0.77450954  0.31037905  0.44866857    -0.73200
Cu1001     Cu  0.78900847  0.25002650  0.48094323     1.04600
Cu1002     Cu  0.75039801  0.28865621  0.48113636     1.04300
C1003       C  0.79958664  0.29941349  0.43819686     0.93100
C1004       C  0.73986308  0.23921728  0.52387439     0.92200
C1005       C  0.73960329  0.23954763  0.43814178     0.84400
C1006       C  0.79976259  0.29919674  0.52391789     0.90600
O1007       O  0.26451062  0.48735355  0.68854617    -0.73100
O1008       O  0.31035271  0.55210903  0.73461410    -0.74100
O1009       O  0.31034538  0.48713874  0.73427398    -0.62700
O1010       O  0.26455482  0.55233890  0.68884223    -0.71100
O1011       O  0.22847753  0.55219599  0.72491137    -0.70700
O1012       O  0.27431237  0.48701871  0.77038750    -0.61900
O1013       O  0.27425441  0.55198948  0.77066422    -0.74400
O1014       O  0.22849559  0.48720472  0.72467935    -0.73200
Cu1015     Cu  0.28870991  0.51974269  0.71029200     1.04600
Cu1016     Cu  0.25011257  0.51959692  0.74892918     1.04300
C1017       C  0.23942386  0.47691353  0.69951786     0.93100
C1018       C  0.29938811  0.56238455  0.75977282     0.92200
C1019       C  0.29942009  0.47667745  0.75936730     0.84400
C1020       C  0.23944578  0.56268574  0.69984476     0.90600
O1021       O  0.76423857  0.48707096  0.18994366    -0.73100
O1022       O  0.81001260  0.55182566  0.23595714    -0.74100
O1023       O  0.81001724  0.48683451  0.23569571    -0.62700
O1024       O  0.76420136  0.55203543  0.19024598    -0.71100
O1025       O  0.72816681  0.55191060  0.22635843    -0.70700
O1026       O  0.77394609  0.48668898  0.27177115    -0.61900
O1027       O  0.77399442  0.55167278  0.27208739    -0.74400
O1028       O  0.72814675  0.48694362  0.22600065    -0.73200
Cu1029     Cu  0.78839046  0.51944659  0.21169200     1.04600
Cu1030     Cu  0.74979455  0.51929548  0.25033123     1.04300
C1031       C  0.73910298  0.47667939  0.20083428     0.93100
C1032       C  0.79908275  0.56211226  0.26112032     0.92200
C1033       C  0.79905277  0.47634240  0.26076271     0.84400
C1034       C  0.73909579  0.56237747  0.20126899     0.90600
O1035       O  0.55251148  0.26430526  0.68958282    -0.73100
O1036       O  0.48772845  0.31060786  0.73505369    -0.74100
O1037       O  0.55269304  0.31005437  0.73538611    -0.62700
O1038       O  0.48754412  0.26486013  0.68925897    -0.71100
O1039       O  0.48713456  0.22877016  0.72531699    -0.70700
O1040       O  0.55230205  0.27395541  0.77143548    -0.61900
O1041       O  0.48732853  0.27452568  0.77112132    -0.74400
O1042       O  0.55210179  0.22820198  0.72562964    -0.73200
Cu1043     Cu  0.52014070  0.28872857  0.71105035     1.04600
Cu1044     Cu  0.51969876  0.25008972  0.74964776     1.04300
C1045       C  0.56265156  0.23909876  0.70056106     0.93100
C1046       C  0.47717359  0.29971905  0.76012265     0.92200
C1047       C  0.56289679  0.29900860  0.76053772     0.84400
C1048       C  0.47693098  0.23981908  0.70016603     0.90600
O1049       O  0.48660840  0.81100075  0.23509881    -0.73100
O1050       O  0.55132447  0.76464225  0.18956333    -0.74100
O1051       O  0.48635633  0.76525693  0.18928534    -0.62700
O1052       O  0.55157542  0.81039127  0.23537213    -0.71100
O1053       O  0.55116060  0.77430142  0.27143061    -0.70700
O1054       O  0.48596228  0.72915489  0.22533192    -0.61900
O1055       O  0.55092275  0.72856079  0.22563196    -0.74400
O1056       O  0.48619666  0.77489597  0.27114432    -0.73200
Cu1057     Cu  0.51898414  0.78909696  0.21105915     1.04600
Cu1058     Cu  0.51853884  0.75045629  0.24965528     1.04300
C1059       C  0.47606532  0.80010843  0.26017215     0.93100
C1060       C  0.56146778  0.73944156  0.20055544     0.92200
C1061       C  0.47575640  0.74020681  0.20018363     0.84400
C1062       C  0.56178471  0.79933492  0.26051709     0.90600
O1063       O  0.77388220  0.72828777  0.44863780    -0.73100
O1064       O  0.72802490  0.77425696  0.51344560    -0.74100
O1065       O  0.72808278  0.77404031  0.44847803    -0.62700
O1066       O  0.77377110  0.72843510  0.51360253    -0.71100
O1067       O  0.80988906  0.76447182  0.51354801    -0.70700
O1068       O  0.76412103  0.81015642  0.44845794    -0.61900
O1069       O  0.76416118  0.81027719  0.51343210    -0.74400
O1070       O  0.80991169  0.76441456  0.44858063    -0.73200
Cu1071     Cu  0.74966709  0.74998320  0.48104571     1.04600
Cu1072     Cu  0.78829159  0.78860201  0.48100499     1.04300
C1073       C  0.79898758  0.73926604  0.43824693     0.93100
C1074       C  0.73901720  0.79937862  0.52379217     0.92200
C1075       C  0.73902856  0.79914514  0.43806217     0.84400
C1076       C  0.79890073  0.73937781  0.52396200     0.90600
O1077       O  0.81042074  0.48658536  0.72634297    -0.73100
O1078       O  0.76462436  0.55184016  0.77170986    -0.74100
O1079       O  0.76461190  0.48686747  0.77208541    -0.62700
O1080       O  0.81043520  0.55154832  0.72597878    -0.71100
O1081       O  0.77438369  0.55137394  0.68987738    -0.70700
O1082       O  0.72855086  0.48669922  0.73599353    -0.61900
O1083       O  0.72858437  0.55168820  0.73559812    -0.74400
O1084       O  0.77435124  0.48640240  0.69026080    -0.73200
Cu1085     Cu  0.78879146  0.51921637  0.75030436     1.04600
Cu1086     Cu  0.75019420  0.51903074  0.71166145     1.04300
C1087       C  0.79947225  0.47608781  0.70127069     0.93100
C1088       C  0.73953785  0.56219966  0.76066186     0.92200
C1089       C  0.73949750  0.47644453  0.76116571     0.84400
C1090       C  0.79949960  0.56179396  0.70079889     0.90600
O1091       O  0.48698951  0.76426165  0.77147567    -0.73100
O1092       O  0.55128503  0.81062423  0.72545919    -0.74100
O1093       O  0.48632453  0.80998197  0.72564157    -0.62700
O1094       O  0.55196382  0.76484562  0.77121856    -0.71100
O1095       O  0.55214504  0.72879739  0.73511310    -0.70700
O1096       O  0.48648628  0.77384229  0.68962749    -0.61900
O1097       O  0.55144220  0.77457298  0.68935246    -0.74400
O1098       O  0.48718147  0.72812666  0.73545320    -0.73200
Cu1099     Cu  0.51913035  0.78870048  0.74972220     1.04600
Cu1100     Cu  0.51932095  0.75006132  0.71111772     1.04300
C1101       C  0.47680700  0.73903268  0.76059507     0.93100
C1102       C  0.56163896  0.79977888  0.70029019     0.92200
C1103       C  0.47594405  0.79889357  0.70057478     0.84400
C1104       C  0.56253708  0.73983457  0.76018874     0.90600
loop_ 
_geom_bond_atom_site_label_1 
_geom_bond_atom_site_label_2 
_geom_bond_distance 
_geom_bond_site_symmetry_2 
_ccdc_geom_bond_type 
N1            N2   1.322       .  A
N1            C5   1.343       .  A
N1           Cu9   2.062       .  S
N2            C3   1.343       .  A
N2           Cu8   2.061       .  S
C3            C4   1.380       .  A
C3            H6   1.082       .  S
C4            C5   1.381       .  A
C4         C1088   1.461       .  S
C5            H7   1.082       .  S
Cu8          N11   2.061       .  S
Cu9          N19   2.062       .  S
Cu10         N12   2.062       .  S
Cu10         N18   2.062       .  S
N11          N12   1.322       .  A
N11          C15   1.343       .  A
N12          C13   1.343       .  A
C13          C14   1.380       .  A
C13          H16   1.082       .  S
C14          C15   1.380       .  A
C14         C107   1.461       .  S
C15          H17   1.082       .  S
N18          N19   1.322       .  A
N18          C22   1.343       .  A
N19          C20   1.343       .  A
C20          C21   1.381       .  A
C20          H23   1.082       .  S
C21          C22   1.381       .  A
C21        C1104   1.461       .  S
C22          H24   1.082       .  S
N25          N26   1.322       .  A
N25          C29   1.343       .  A
N25         Cu33   2.062       .  S
N26          C27   1.343       .  A
N26         Cu32   2.062       .  S
C27          C28   1.381       .  A
C27          H30   1.082       .  S
C28          C29   1.380       .  A
C28         C135   1.461       .  S
C29          H31   1.082       .  S
Cu32         N35   2.062       .  S
Cu33         N43   2.062       .  S
Cu34         N36   2.060       .  S
Cu34         N42   2.060       .  S
N35          N36   1.322       .  A
N35          C39   1.343       .  A
N36          C37   1.343       .  A
C37          C38   1.380       .  A
C37          H40   1.082       .  S
C38          C39   1.381       .  A
C38        C1102   1.460       .  S
C39          H41   1.082       .  S
N42          N43   1.321       .  A
N42          C46   1.343       .  A
N43          C44   1.343       .  A
C44          C45   1.381       .  A
C44          H47   1.082       .  S
C45          C46   1.380       .  A
C45        C1074   1.461       .  S
C46          H48   1.082       .  S
N49          N50   1.322       .  A
N49          C53   1.343       .  A
N49         Cu57   2.062       .  S
N50          C51   1.343       .  A
N50         Cu56   2.062       .  S
C51          C52   1.380       .  A
C51          H54   1.082       .  S
C52          C53   1.380       .  A
C52        C1090   1.461       .  S
C53          H55   1.082       .  S
Cu56         N59   2.062       .  S
Cu57         N67   2.061       .  S
Cu58         N60   2.061       .  S
Cu58         N66   2.061       .  S
N59          N60   1.321       .  A
N59          C63   1.343       .  A
N60          C61   1.343       .  A
C61          C62   1.380       .  A
C61          H64   1.082       .  S
C62          C63   1.381       .  A
C62        C1076   1.461       .  S
C63          H65   1.082       .  S
N66          N67   1.322       .  A
N66          C70   1.342       .  A
N67          C68   1.343       .  A
C68          C69   1.381       .  A
C68          H71   1.082       .  S
C69          C70   1.380       .  A
C69         C121   1.461       .  S
C70          H72   1.082       .  S
N73          N74   1.321       .  A
N73          C77   1.342       .  A
N73         Cu81   2.060       .  S
N74          C75   1.343       .  A
N74         Cu80   2.061       .  S
C75          C76   1.381       .  A
C75          H78   1.082       .  S
C76          C77   1.380       .  A
C76         C137   1.461       .  S
C77          H79   1.082       .  S
Cu80         N83   2.061       .  S
Cu81         N91   2.060       .  S
Cu82         N84   2.064       .  S
Cu82         N90   2.064       .  S
N83          N84   1.322       .  A
N83          C87   1.343       .  A
N84          C85   1.343       .  A
C85          C86   1.381       .  A
C85          H88   1.082       .  S
C86          C87   1.380       .  A
C86         C109   1.461       .  S
C87          H89   1.082       .  S
N90          N91   1.322       .  A
N90          C94   1.343       .  A
N91          C92   1.343       .  A
C92          C93   1.380       .  A
C92          H95   1.082       .  S
C93          C94   1.381       .  A
C93         C123   1.461       .  S
C94          H96   1.082       .  S
O97        Cu105   1.998       .  S
O97         C107   1.276       .  A
O98        Cu105   1.998   1_554  S
O98         C108   1.276       .  A
O99        Cu105   2.000       .  S
O99         C109   1.277       .  A
O100       Cu105   2.000   1_554  S
O100        C110   1.277       .  A
O101       Cu106   1.999   1_554  S
O101        C110   1.276       .  A
O102       Cu106   1.999       .  S
O102        C109   1.276       .  A
O103       Cu106   2.000   1_554  S
O103        C108   1.277       .  A
O104       Cu106   2.000       .  S
O104        C107   1.277       .  A
Cu105      Cu106   2.379       .  S
C108        C269   1.461       .  S
C110        C159   1.461       .  S
O111       Cu119   2.000   1_655  S
O111        C121   1.277       .  A
O112       Cu119   1.999       .  S
O112        C122   1.277       .  A
O113       Cu119   1.999   1_655  S
O113        C123   1.276       .  A
O114       Cu119   1.999       .  S
O114        C124   1.276       .  A
O115       Cu120   2.000       .  S
O115        C124   1.277       .  A
O116       Cu120   2.000   1_655  S
O116        C123   1.277       .  A
O117       Cu120   1.998       .  S
O117        C122   1.276       .  A
O118       Cu120   1.998   1_655  S
O118        C121   1.276       .  A
Cu119      Cu120   2.379       .  S
C122        C369   1.461       .  S
C124        C207   1.461       .  S
O125       Cu133   1.999   1_565  S
O125        C135   1.276       .  A
O126       Cu133   1.999       .  S
O126        C136   1.276       .  A
O127       Cu133   1.999   1_565  S
O127        C137   1.276       .  A
O128       Cu133   1.999       .  S
O128        C138   1.276       .  A
O129       Cu134   1.999       .  S
O129        C138   1.276       .  A
O130       Cu134   1.999   1_565  S
O130        C137   1.276       .  A
O131       Cu134   2.000       .  S
O131        C136   1.277       .  A
O132       Cu134   2.000   1_565  S
O132        C135   1.276       .  A
Cu133      Cu134   2.379       .  S
C136        C469   1.461       .  S
C138        C166   1.461       .  S
N139        N140   1.322       .  A
N139        C143   1.343       .  A
N139       Cu147   2.061       .  S
N140        C141   1.343       .  A
N140       Cu146   2.063       .  S
C141        C142   1.381       .  A
C141        H144   1.082       .  S
C142        C143   1.380       .  A
C142       C1060   1.461       .  S
C143        H145   1.082       .  S
Cu146       N149   2.063       .  S
Cu147       N157   2.061       .  S
Cu148       N150   2.061       .  S
Cu148       N156   2.061       .  S
N149        N150   1.322       .  A
N149        C153   1.343       .  A
N150        C151   1.343       .  A
C151        C152   1.380       .  A
C151        H154   1.082       .  S
C152        C153   1.381       .  A
C152       C1034   1.461       .  S
C153        H155   1.082       .  S
N156        N157   1.321       .  A
N156        C160   1.343       .  A
N157        C158   1.343       .  A
C158        C159   1.380       .  A
C158        H161   1.082       .  S
C159        C160   1.381       .  A
C160        H162   1.082       .  S
N163        N164   1.322       .  A
N163        C167   1.343       .  A
N163       Cu171   2.062       .  S
N164        C165   1.343       .  A
N164       Cu170   2.062       .  S
C165        C166   1.380       .  A
C165        H168   1.082       .  S
C166        C167   1.380       .  A
C167        H169   1.082       .  S
Cu170       N173   2.062       .  S
Cu171       N181   2.062       .  S
Cu172       N174   2.060       .  S
Cu172       N180   2.060       .  S
N173        N174   1.321       .  A
N173        C177   1.343       .  A
N174        C175   1.342       .  A
C175        C176   1.380       .  A
C175        H178   1.082       .  S
C176        C177   1.381       .  A
C176       C1045   1.461       .  S
C177        H179   1.082       .  S
N180        N181   1.321       .  A
N180        C184   1.343       .  A
N181        C182   1.343       .  A
C182        C183   1.381       .  A
C182        H185   1.082       .  S
C183        C184   1.380       .  A
C183       C1004   1.461       .  S
C184        H186   1.082       .  S
N187        N188   1.322       .  A
N187        C191   1.343       .  A
N187       Cu195   2.062       .  S
N188        C189   1.343       .  A
N188       Cu194   2.062       .  S
C189        C190   1.380       .  A
C189        H192   1.082       .  S
C190        C191   1.381       .  A
C190       C1020   1.461       .  S
C191        H193   1.082       .  S
Cu194       N197   2.061       .  S
Cu195       N205   2.062       .  S
Cu196       N198   2.062       .  S
Cu196       N204   2.062       .  S
N197        N198   1.322       .  A
N197        C201   1.343       .  A
N198        C199   1.343       .  A
C199        C200   1.380       .  A
C199        H202   1.082       .  S
C200        C201   1.380       .  A
C200        C989   1.461       .  S
C201        H203   1.082       .  S
N204        N205   1.322       .  A
N204        C208   1.343       .  A
N205        C206   1.343       .  A
C206        C207   1.380       .  A
C206        H209   1.082       .  S
C207        C208   1.381       .  A
C208        H210   1.082       .  S
N211        N212   1.322       .  A
N211        C215   1.343       .  A
N211       Cu219   2.062       .  S
N212        C213   1.343       .  A
N212       Cu218   2.061       .  S
C213        C214   1.380       .  A
C213        H216   1.082       .  S
C214        C215   1.380       .  A
C214       C1032   1.461       .  S
C215        H217   1.082       .  S
Cu218       N221   2.061       .  S
Cu219       N229   2.062       .  S
Cu220       N222   2.062       .  S
Cu220       N228   2.062       .  S
N221        N222   1.322       .  A
N221        C225   1.343       .  A
N222        C223   1.343       .  A
C223        C224   1.380       .  A
C223        H226   1.082       .  S
C224        C225   1.380       .  A
C224       C1073   1.461       .  S
C225        H227   1.082       .  S
N228        N229   1.322       .  A
N228        C232   1.343       .  A
N229        C230   1.343       .  A
C230        C231   1.380       .  A
C230        H233   1.082       .  S
C231        C232   1.381       .  A
C231        C248   1.461       .  S
C232        H234   1.082       .  S
O235       Cu243   1.998       .  S
O235        C245   1.276       .  A
O236       Cu243   1.998   1_655  S
O236        C246   1.276       .  A
O237       Cu243   2.000       .  S
O237        C247   1.276       .  A
O238       Cu243   2.000   1_655  S
O238        C248   1.277       .  A
O239       Cu244   2.000   1_655  S
O239        C248   1.277       .  A
O240       Cu244   2.000       .  S
O240        C247   1.277       .  A
O241       Cu244   1.999   1_655  S
O241        C246   1.276       .  A
O242       Cu244   1.999       .  S
O242        C245   1.276       .  A
Cu243      Cu244   2.379       .  S
C245        C823   1.460       .  S
C246        C262   1.460       .  S
C247        C620   1.461       .  S
N249        N250   1.322       .  A
N249        C253   1.343       .  A
N249       Cu257   2.062       .  S
N250        C251   1.343       .  A
N250       Cu256   2.061       .  S
C251        C252   1.380       .  A
C251        H254   1.082       .  S
C252        C253   1.381       .  A
C252        C307   1.461       .  S
C253        H255   1.082       .  S
Cu256       N259   2.061       .  S
Cu257       N267   2.062       .  S
Cu258       N260   2.060       .  S
Cu258       N266   2.060       .  S
N259        N260   1.321       .  A
N259        C263   1.343       .  A
N260        C261   1.342       .  A
C261        C262   1.380       .  A
C261        H264   1.082       .  S
C262        C263   1.380       .  A
C263        H265   1.082       .  S
N266        N267   1.322       .  A
N266        C270   1.343       .  A
N267        C268   1.343       .  A
C268        C269   1.381       .  A
C268        H271   1.082       .  S
C269        C270   1.380       .  A
C270        H272   1.082       .  S
N273        N274   1.321       .  A
N273        C277   1.343       .  A
N273       Cu281   2.061       .  S
N274        C275   1.343       .  A
N274       Cu280   2.061       .  S
C275        C276   1.380       .  A
C275        H278   1.082       .  S
C276        C277   1.381       .  A
C276        C309   1.461       .  S
C277        H279   1.082       .  S
Cu280       N283   2.061       .  S
Cu281       N291   2.061       .  S
Cu282       N284   2.063       .  S
Cu282       N290   2.063       .  S
N283        N284   1.322       .  A
N283        C287   1.343       .  A
N284        C285   1.343       .  A
C285        C286   1.381       .  A
C285        H288   1.082       .  S
C286        C287   1.380       .  A
C286       C1062   1.461       .  S
C287        H289   1.082       .  S
N290        N291   1.322       .  A
N290        C294   1.343       .  A
N291        C292   1.343       .  A
C292        C293   1.380       .  A
C292        H295   1.082       .  S
C293        C294   1.381       .  A
C293       C1075   1.461       .  S
C294        H296   1.082       .  S
O297       Cu305   1.999   1_565  S
O297        C307   1.277       .  A
O298       Cu305   1.999       .  S
O298        C308   1.276       .  A
O299       Cu305   1.999   1_565  S
O299        C309   1.276       .  A
O300       Cu305   1.999       .  S
O300        C310   1.276       .  A
O301       Cu306   2.000       .  S
O301        C310   1.277       .  A
O302       Cu306   2.000   1_565  S
O302        C309   1.277       .  A
O303       Cu306   1.998       .  S
O303        C308   1.276       .  A
O304       Cu306   1.998   1_565  S
O304        C307   1.276       .  A
Cu305      Cu306   2.379       .  S
C308        C572   1.461       .  S
C310        C744   1.461       .  S
N311        N312   1.321       .  A
N311        C315   1.343       .  A
N311       Cu319   2.061       .  S
N312        C313   1.343       .  A
N312       Cu318   2.061       .  S
C313        C314   1.380       .  A
C313        H316   1.082       .  S
C314        C315   1.380       .  A
C314        C347   1.461       .  S
C315        H317   1.082       .  S
Cu318       N321   2.061       .  S
Cu319       N329   2.061       .  S
Cu320       N322   2.063       .  S
Cu320       N328   2.063       .  S
N321        N322   1.322       .  A
N321        C325   1.343       .  A
N322        C323   1.343       .  A
C323        C324   1.381       .  A
C323        H326   1.082       .  S
C324        C325   1.380       .  A
C324       C1103   1.461       .  S
C325        H327   1.082       .  S
N328        N329   1.322       .  A
N328        C332   1.343       .  A
N329        C330   1.343       .  A
C330        C331   1.380       .  A
C330        H333   1.082       .  S
C331        C332   1.381       .  A
C331        C991   1.461       .  S
C332        H334   1.082       .  S
O335       Cu343   1.999   1_565  S
O335        C345   1.276       .  A
O336       Cu343   1.999       .  S
O336        C346   1.276       .  A
O337       Cu343   1.999   1_565  S
O337        C347   1.276       .  A
O338       Cu343   1.999       .  S
O338        C348   1.277       .  A
O339       Cu344   1.998       .  S
O339        C348   1.276       .  A
O340       Cu344   1.998   1_565  S
O340        C347   1.276       .  A
O341       Cu344   2.000       .  S
O341        C346   1.277       .  A
O342       Cu344   2.000   1_565  S
O342        C345   1.277       .  A
Cu343      Cu344   2.379       .  S
C345        C362   1.461       .  S
C346        C689   1.461       .  S
C348        C878   1.461       .  S
N349        N350   1.321       .  A
N349        C353   1.343       .  A
N349       Cu357   2.060       .  S
N350        C351   1.343       .  A
N350       Cu356   2.061       .  S
C351        C352   1.381       .  A
C351        H354   1.082       .  S
C352        C353   1.380       .  A
C352        C408   1.460       .  S
C353        H355   1.082       .  S
Cu356       N359   2.061       .  S
Cu357       N367   2.060       .  S
Cu358       N360   2.063       .  S
Cu358       N366   2.063       .  S
N359        N360   1.322       .  A
N359        C363   1.343       .  A
N360        C361   1.343       .  A
C361        C362   1.381       .  A
C361        H364   1.082       .  S
C362        C363   1.380       .  A
C363        H365   1.082       .  S
N366        N367   1.322       .  A
N366        C370   1.343       .  A
N367        C368   1.342       .  A
C368        C369   1.380       .  A
C368        H371   1.082       .  S
C369        C370   1.381       .  A
C370        H372   1.082       .  S
N373        N374   1.322       .  A
N373        C377   1.343       .  A
N373       Cu381   2.061       .  S
N374        C375   1.343       .  A
N374       Cu380   2.062       .  S
C375        C376   1.381       .  A
C375        H378   1.082       .  S
C376        C377   1.380       .  A
C376       C1018   1.461       .  S
C377        H379   1.082       .  S
Cu380       N383   2.062       .  S
Cu381       N391   2.061       .  S
Cu382       N384   2.061       .  S
Cu382       N390   2.061       .  S
N383        N384   1.322       .  A
N383        C387   1.343       .  A
N384        C385   1.343       .  A
C385        C386   1.380       .  A
C385        H388   1.082       .  S
C386        C387   1.381       .  A
C386        C410   1.461       .  S
C387        H389   1.082       .  S
N390        N391   1.322       .  A
N390        C394   1.343       .  A
N391        C392   1.343       .  A
C392        C393   1.380       .  A
C392        H395   1.082       .  S
C393        C394   1.380       .  A
C393       C1101   1.460       .  S
C394        H396   1.082       .  S
O397       Cu405   1.998   1_554  S
O397        C407   1.276       .  A
O398       Cu405   1.997       .  S
O398        C408   1.276       .  A
O399       Cu405   2.000   1_554  S
O399        C409   1.277       .  A
O400       Cu405   2.000       .  S
O400        C410   1.277       .  A
O401       Cu406   1.999       .  S
O401        C410   1.276       .  A
O402       Cu406   1.999   1_554  S
O402        C409   1.276       .  A
O403       Cu406   2.000       .  S
O403        C408   1.277       .  A
O404       Cu406   2.000   1_554  S
O404        C407   1.277       .  A
Cu405      Cu406   2.379       .  S
C407        C555   1.461       .  S
C409        C627   1.461       .  S
N411        N412   1.321       .  A
N411        C415   1.343       .  A
N411       Cu419   2.061       .  S
N412        C413   1.343       .  A
N412       Cu418   2.061       .  S
C413        C414   1.380       .  A
C413        H416   1.082       .  S
C414        C415   1.380       .  A
C414       C1006   1.461       .  S
C415        H417   1.082       .  S
Cu418       N421   2.061       .  S
Cu419       N429   2.061       .  S
Cu420       N422   2.062       .  S
Cu420       N428   2.062       .  S
N421        N422   1.322       .  A
N421        C425   1.343       .  A
N422        C423   1.343       .  A
C423        C424   1.380       .  A
C423        H426   1.082       .  S
C424        C425   1.380       .  A
C424        C445   1.460       .  S
C425        H427   1.082       .  S
N428        N429   1.322       .  A
N428        C432   1.343       .  A
N429        C430   1.343       .  A
C430        C431   1.380       .  A
C430        H433   1.082       .  S
C431        C432   1.381       .  A
C431       C1087   1.461       .  S
C432        H434   1.082       .  S
O435       Cu443   1.999   1_655  S
O435        C445   1.276       .  A
O436       Cu443   1.999       .  S
O436        C446   1.276       .  A
O437       Cu443   2.000   1_655  S
O437        C447   1.277       .  A
O438       Cu443   2.000       .  S
O438        C448   1.276       .  A
O439       Cu444   2.000       .  S
O439        C448   1.277       .  A
O440       Cu444   2.000   1_655  S
O440        C447   1.276       .  A
O441       Cu444   1.998       .  S
O441        C446   1.276       .  A
O442       Cu444   1.998   1_655  S
O442        C445   1.276       .  A
Cu443      Cu444   2.379       .  S
C446        C895   1.460       .  S
C447        C452   1.461       .  S
C448        C713   1.461       .  S
N449        N450   1.322       .  A
N449        C453   1.343       .  A
N449       Cu457   2.062       .  S
N450        C451   1.343       .  A
N450       Cu456   2.063       .  S
C451        C452   1.381       .  A
C451        H454   1.082       .  S
C452        C453   1.380       .  A
C453        H455   1.082       .  S
Cu456       N459   2.063       .  S
Cu457       N467   2.062       .  S
Cu458       N460   2.061       .  S
Cu458       N466   2.061       .  S
N459        N460   1.322       .  A
N459        C463   1.343       .  A
N460        C461   1.343       .  A
C461        C462   1.380       .  A
C461        H464   1.082       .  S
C462        C463   1.381       .  A
C462        C510   1.461       .  S
C463        H465   1.082       .  S
N466        N467   1.322       .  A
N466        C470   1.343       .  A
N467        C468   1.343       .  A
C468        C469   1.381       .  A
C468        H471   1.082       .  S
C469        C470   1.380       .  A
C470        H472   1.082       .  S
N473        N474   1.321       .  A
N473        C477   1.343       .  A
N473       Cu481   2.061       .  S
N474        C475   1.343       .  A
N474       Cu480   2.061       .  S
C475        C476   1.381       .  A
C475        H478   1.082       .  S
C476        C477   1.380       .  A
C476       C1089   1.461       .  S
C477        H479   1.082       .  S
Cu480       N483   2.061       .  S
Cu481       N491   2.061       .  S
Cu482       N484   2.063       .  S
Cu482       N490   2.062       .  S
N483        N484   1.322       .  A
N483        C487   1.343       .  A
N484        C485   1.343       .  A
C485        C486   1.380       .  A
C485        H488   1.082       .  S
C486        C487   1.380       .  A
C486        C508   1.461       .  S
C487        H489   1.082       .  S
N490        N491   1.322       .  A
N490        C494   1.343       .  A
N491        C492   1.343       .  A
C492        C493   1.380       .  A
C492        H495   1.082       .  S
C493        C494   1.381       .  A
C493       C1047   1.461       .  S
C494        H496   1.082       .  S
O497       Cu505   2.000   1_554  S
O497        C507   1.277       .  A
O498       Cu505   2.000       .  S
O498        C508   1.277       .  A
O499       Cu505   1.999   1_554  S
O499        C509   1.276       .  A
O500       Cu505   1.999       .  S
O500        C510   1.276       .  A
O501       Cu506   2.000       .  S
O501        C510   1.277       .  A
O502       Cu506   2.000   1_554  S
O502        C509   1.277       .  A
O503       Cu506   1.998       .  S
O503        C508   1.276       .  A
O504       Cu506   1.998   1_554  S
O504        C507   1.276       .  A
Cu505      Cu506   2.379       .  S
C507        C761   1.461       .  S
C509        C531   1.461       .  S
N511        N512   1.322       .  A
N511        C515   1.343       .  A
N511       Cu519   2.061       .  S
N512        C513   1.343       .  A
N512       Cu518   2.061       .  S
C513        C514   1.380       .  A
C513        H516   1.082       .  S
C514        C515   1.380       .  A
C514        C962   1.460       .  S
C515        H517   1.082       .  S
Cu518       N521   2.061       .  S
Cu519       N529   2.061       .  S
Cu520       N522   2.062       .  S
Cu520       N528   2.062       .  S
N521        N522   1.322       .  A
N521        C525   1.343       .  A
N522        C523   1.343       .  A
C523        C524   1.381       .  A
C523        H526   1.082       .  S
C524        C525   1.380       .  A
C524       C1031   1.461       .  S
C525        H527   1.082       .  S
N528        N529   1.322       .  A
N528        C532   1.343       .  A
N529        C530   1.343       .  A
C530        C531   1.380       .  A
C530        H533   1.082       .  S
C531        C532   1.381       .  A
C532        H534   1.082       .  S
N535        N536   1.321       .  A
N535        C539   1.343       .  A
N535       Cu543   2.061       .  S
N536        C537   1.343       .  A
N536       Cu542   2.061       .  S
C537        C538   1.380       .  A
C537        H540   1.082       .  S
C538        C539   1.380       .  A
C538        C947   1.461       .  S
C539        H541   1.082       .  S
Cu542       N545   2.061       .  S
Cu543       N553   2.061       .  S
Cu544       N546   2.063       .  S
Cu544       N552   2.063       .  S
N545        N546   1.322       .  A
N545        C549   1.342       .  A
N546        C547   1.343       .  A
C547        C548   1.381       .  A
C547        H550   1.082       .  S
C548        C549   1.380       .  A
C548       C1061   1.461       .  S
C549        H551   1.082       .  S
N552        N553   1.322       .  A
N552        C556   1.343       .  A
N553        C554   1.343       .  A
C554        C555   1.380       .  A
C554        H557   1.082       .  S
C555        C556   1.380       .  A
C556        H558   1.082       .  S
N559        N560   1.322       .  A
N559        C563   1.343       .  A
N559       Cu567   2.063       .  S
N560        C561   1.343       .  A
N560       Cu566   2.061       .  S
C561        C562   1.380       .  A
C561        H564   1.082       .  S
C562        C563   1.381       .  A
C562        C964   1.461       .  S
C563        H565   1.082       .  S
Cu566       N569   2.061       .  S
Cu567       N577   2.063       .  S
Cu568       N570   2.061       .  S
Cu568       N576   2.061       .  S
N569        N570   1.321       .  A
N569        C573   1.343       .  A
N570        C571   1.343       .  A
C571        C572   1.380       .  A
C571        H574   1.082       .  S
C572        C573   1.380       .  A
C573        H575   1.082       .  S
N576        N577   1.322       .  A
N576        C580   1.343       .  A
N577        C578   1.343       .  A
C578        C579   1.381       .  A
C578        H581   1.082       .  S
C579        C580   1.380       .  A
C579       C1005   1.461       .  S
C580        H582   1.082       .  S
N583        N584   1.322       .  A
N583        C587   1.343       .  A
N583       Cu591   2.062       .  S
N584        C585   1.343       .  A
N584       Cu590   2.062       .  S
C585        C586   1.381       .  A
C585        H588   1.082       .  S
C586        C587   1.380       .  A
C586        C667   1.461       .  S
C587        H589   1.082       .  S
Cu590       N593   2.062       .  S
Cu591       N601   2.062       .  S
Cu592       N594   2.060       .  S
Cu592       N600   2.060       .  S
N593        N594   1.322       .  A
N593        C597   1.343       .  A
N594        C595   1.343       .  A
C595        C596   1.380       .  A
C595        H598   1.082       .  S
C596        C597   1.381       .  A
C596        C961   1.460       .  S
C597        H599   1.082       .  S
N600        N601   1.321       .  A
N600        C604   1.343       .  A
N601        C602   1.343       .  A
C602        C603   1.381       .  A
C602        H605   1.082       .  S
C603        C604   1.380       .  A
C603        C978   1.461       .  S
C604        H606   1.082       .  S
N607        N608   1.322       .  A
N607        C611   1.343       .  A
N607       Cu615   2.061       .  S
N608        C609   1.343       .  A
N608       Cu614   2.062       .  S
C609        C610   1.381       .  A
C609        H612   1.082       .  S
C610        C611   1.380       .  A
C610        C668   1.461       .  S
C611        H613   1.082       .  S
Cu614       N617   2.062       .  S
Cu615       N625   2.061       .  S
Cu616       N618   2.063       .  S
Cu616       N624   2.063       .  S
N617        N618   1.322       .  A
N617        C621   1.343       .  A
N618        C619   1.343       .  A
C619        C620   1.381       .  A
C619        H622   1.082       .  S
C620        C621   1.380       .  A
C621        H623   1.082       .  S
N624        N625   1.322       .  A
N624        C628   1.343       .  A
N625        C626   1.343       .  A
C626        C627   1.380       .  A
C626        H629   1.082       .  S
C627        C628   1.381       .  A
C628        H630   1.082       .  S
N631        N632   1.321       .  A
N631        C635   1.342       .  A
N631       Cu639   2.060       .  S
N632        C633   1.343       .  A
N632       Cu638   2.062       .  S
C633        C634   1.381       .  A
C633        H636   1.082       .  S
C634        C635   1.380       .  A
C634       C1059   1.461       .  S
C635        H637   1.082       .  S
Cu638       N641   2.062       .  S
Cu639       N649   2.060       .  S
Cu640       N642   2.062       .  S
Cu640       N648   2.062       .  S
N641        N642   1.322       .  A
N641        C645   1.343       .  A
N642        C643   1.343       .  A
C643        C644   1.380       .  A
C643        H646   1.082       .  S
C644        C645   1.380       .  A
C644        C666   1.461       .  S
C645        H647   1.082       .  S
N648        N649   1.321       .  A
N648        C652   1.343       .  A
N649        C650   1.343       .  A
C650        C651   1.380       .  A
C650        H653   1.082       .  S
C651        C652   1.381       .  A
C651        C990   1.461       .  S
C652        H654   1.082       .  S
O655       Cu663   1.999       .  S
O655        C665   1.276       .  A
O656       Cu663   1.999   1_565  S
O656        C666   1.276       .  A
O657       Cu663   1.999       .  S
O657        C667   1.276       .  A
O658       Cu663   1.999   1_565  S
O658        C668   1.276       .  A
O659       Cu664   2.000   1_565  S
O659        C668   1.277       .  A
O660       Cu664   2.000       .  S
O660        C667   1.277       .  A
O661       Cu664   1.999   1_565  S
O661        C666   1.276       .  A
O662       Cu664   1.999       .  S
O662        C665   1.276       .  A
Cu663      Cu664   2.379       .  S
C665        C847   1.461       .  S
N669        N670   1.322       .  A
N669        C673   1.343       .  A
N669       Cu677   2.061       .  S
N670        C671   1.343       .  A
N670       Cu676   2.063       .  S
C671        C672   1.381       .  A
C671        H674   1.082       .  S
C672        C673   1.380       .  A
C672        C975   1.461       .  S
C673        H675   1.082       .  S
Cu676       N679   2.063       .  S
Cu677       N687   2.061       .  S
Cu678       N680   2.061       .  S
Cu678       N686   2.061       .  S
N679        N680   1.322       .  A
N679        C683   1.343       .  A
N680        C681   1.343       .  A
C681        C682   1.380       .  A
C681        H684   1.082       .  S
C682        C683   1.381       .  A
C682       C1048   1.461       .  S
C683        H685   1.082       .  S
N686        N687   1.321       .  A
N686        C690   1.343       .  A
N687        C688   1.343       .  A
C688        C689   1.380       .  A
C688        H691   1.082       .  S
C689        C690   1.380       .  A
C690        H692   1.082       .  S
N693        N694   1.322       .  A
N693        C697   1.343       .  A
N693       Cu701   2.062       .  S
N694        C695   1.343       .  A
N694       Cu700   2.061       .  S
C695        C696   1.380       .  A
C695        H698   1.082       .  S
C696        C697   1.380       .  A
C696       C1017   1.461       .  S
C697        H699   1.082       .  S
Cu700       N703   2.061       .  S
Cu701       N711   2.062       .  S
Cu702       N704   2.062       .  S
Cu702       N710   2.062       .  S
N703        N704   1.322       .  A
N703        C707   1.343       .  A
N704        C705   1.343       .  A
C705        C706   1.381       .  A
C705        H708   1.082       .  S
C706        C707   1.380       .  A
C706        C977   1.461       .  S
C707        H709   1.082       .  S
N710        N711   1.322       .  A
N710        C714   1.343       .  A
N711        C712   1.343       .  A
C712        C713   1.380       .  A
C712        H715   1.082       .  S
C713        C714   1.381       .  A
C714        H716   1.082       .  S
N717        N718   1.322       .  A
N717        C721   1.343       .  A
N717       Cu725   2.062       .  S
N718        C719   1.343       .  A
N718       Cu724   2.062       .  S
C719        C720   1.380       .  A
C719        H722   1.082       .  S
C720        C721   1.380       .  A
C720        C948   1.461       .  S
C721        H723   1.082       .  S
Cu724       N727   2.062       .  S
Cu725       N735   2.061       .  S
Cu726       N728   2.061       .  S
Cu726       N734   2.061       .  S
N727        N728   1.321       .  A
N727        C731   1.343       .  A
N728        C729   1.343       .  A
C729        C730   1.380       .  A
C729        H732   1.082       .  S
C730        C731   1.381       .  A
C730        C976   1.461       .  S
C731        H733   1.082       .  S
N734        N735   1.322       .  A
N734        C738   1.342       .  A
N735        C736   1.343       .  A
C736        C737   1.381       .  A
C736        H739   1.082       .  S
C737        C738   1.380       .  A
C737        C799   1.461       .  S
C738        H740   1.082       .  S
N741        N742   1.322       .  A
N741        C745   1.343       .  A
N741       Cu749   2.061       .  S
N742        C743   1.343       .  A
N742       Cu748   2.063       .  S
C743        C744   1.381       .  A
C743        H746   1.082       .  S
C744        C745   1.380       .  A
C745        H747   1.082       .  S
Cu748       N751   2.063       .  S
Cu749       N759   2.061       .  S
Cu750       N752   2.060       .  S
Cu750       N758   2.060       .  S
N751        N752   1.322       .  A
N751        C755   1.343       .  A
N752        C753   1.342       .  A
C753        C754   1.380       .  A
C753        H756   1.082       .  S
C754        C755   1.381       .  A
C754        C800   1.461       .  S
C755        H757   1.082       .  S
N758        N759   1.321       .  A
N758        C762   1.343       .  A
N759        C760   1.343       .  A
C760        C761   1.381       .  A
C760        H763   1.082       .  S
C761        C762   1.380       .  A
C762        H764   1.082       .  S
N765        N766   1.322       .  A
N765        C769   1.343       .  A
N765       Cu773   2.062       .  S
N766        C767   1.343       .  A
N766       Cu772   2.062       .  S
C767        C768   1.381       .  A
C767        H770   1.082       .  S
C768        C769   1.380       .  A
C768        C802   1.461       .  S
C769        H771   1.082       .  S
Cu772       N775   2.062       .  S
Cu773       N783   2.062       .  S
Cu774       N776   2.062       .  S
Cu774       N782   2.062       .  S
N775        N776   1.322       .  A
N775        C779   1.343       .  A
N776        C777   1.343       .  A
C777        C778   1.380       .  A
C777        H780   1.082       .  S
C778        C779   1.380       .  A
C778       C1003   1.461       .  S
C779        H781   1.082       .  S
N782        N783   1.322       .  A
N782        C786   1.343       .  A
N783        C784   1.343       .  A
C784        C785   1.381       .  A
C784        H787   1.082       .  S
C785        C786   1.380       .  A
C785       C1033   1.461       .  S
C786        H788   1.082       .  S
O789       Cu797   1.998       .  S
O789        C799   1.276       .  A
O790       Cu797   1.998   1_655  S
O790        C800   1.276       .  A
O791       Cu797   2.000       .  S
O791        C801   1.277       .  A
O792       Cu797   2.000   1_655  S
O792        C802   1.277       .  A
O793       Cu798   1.999   1_655  S
O793        C802   1.276       .  A
O794       Cu798   1.999       .  S
O794        C801   1.276       .  A
O795       Cu798   1.999   1_655  S
O795        C800   1.277       .  A
O796       Cu798   2.000       .  S
O796        C799   1.276       .  A
Cu797      Cu798   2.379       .  S
C801        C840   1.461       .  S
N803        N804   1.322       .  A
N803        C807   1.343       .  A
N803       Cu811   2.062       .  S
N804        C805   1.343       .  A
N804       Cu810   2.062       .  S
C805        C806   1.380       .  A
C805        H808   1.082       .  S
C806        C807   1.381       .  A
C806        C949   1.461       .  S
C807        H809   1.082       .  S
Cu810       N813   2.062       .  S
Cu811       N821   2.062       .  S
Cu812       N814   2.061       .  S
Cu812       N820   2.061       .  S
N813        N814   1.321       .  A
N813        C817   1.343       .  A
N814        C815   1.343       .  A
C815        C816   1.380       .  A
C815        H818   1.082       .  S
C816        C817   1.381       .  A
C816        C992   1.461       .  S
C817        H819   1.082       .  S
N820        N821   1.322       .  A
N820        C824   1.343       .  A
N821        C822   1.343       .  A
C822        C823   1.380       .  A
C822        H825   1.082       .  S
C823        C824   1.380       .  A
C824        H826   1.082       .  S
N827        N828   1.322       .  A
N827        C831   1.343       .  A
N827       Cu835   2.061       .  S
N828        C829   1.343       .  A
N828       Cu834   2.064       .  S
C829        C830   1.381       .  A
C829        H832   1.082       .  S
C830        C831   1.380       .  A
C830        C936   1.461       .  S
C831        H833   1.082       .  S
Cu834       N837   2.064       .  S
Cu835       N845   2.061       .  S
Cu836       N838   2.060       .  S
Cu836       N844   2.060       .  S
N837        N838   1.322       .  A
N837        C841   1.343       .  A
N838        C839   1.343       .  A
C839        C840   1.380       .  A
C839        H842   1.082       .  S
C840        C841   1.381       .  A
C841        H843   1.082       .  S
N844        N845   1.321       .  A
N844        C848   1.343       .  A
N845        C846   1.343       .  A
C846        C847   1.381       .  A
C846        H849   1.082       .  S
C847        C848   1.380       .  A
C848        H850   1.082       .  S
N851        N852   1.322       .  A
N851        C855   1.343       .  A
N851       Cu859   2.061       .  S
N852        C853   1.343       .  A
N852       Cu858   2.062       .  S
C853        C854   1.381       .  A
C853        H856   1.082       .  S
C854        C855   1.380       .  A
C854        C950   1.461       .  S
C855        H857   1.082       .  S
Cu858       N861   2.062       .  S
Cu859       N869   2.061       .  S
Cu860       N862   2.062       .  S
Cu860       N868   2.062       .  S
N861        N862   1.322       .  A
N861        C865   1.343       .  A
N862        C863   1.343       .  A
C863        C864   1.381       .  A
C863        H866   1.082       .  S
C864        C865   1.381       .  A
C864        C963   1.461       .  S
C865        H867   1.082       .  S
N868        N869   1.322       .  A
N868        C872   1.343       .  A
N869        C870   1.343       .  A
C870        C871   1.380       .  A
C870        H873   1.082       .  S
C871        C872   1.381       .  A
C871        C934   1.461       .  S
C872        H874   1.082       .  S
N875        N876   1.322       .  A
N875        C879   1.343       .  A
N875       Cu883   2.061       .  S
N876        C877   1.343       .  A
N876       Cu882   2.062       .  S
C877        C878   1.381       .  A
C877        H880   1.082       .  S
C878        C879   1.380       .  A
C879        H881   1.082       .  S
Cu882       N885   2.062       .  S
Cu883       N893   2.061       .  S
Cu884       N886   2.060       .  S
Cu884       N892   2.060       .  S
N885        N886   1.322       .  A
N885        C889   1.343       .  A
N886        C887   1.343       .  A
C887        C888   1.380       .  A
C887        H890   1.082       .  S
C888        C889   1.381       .  A
C888        C933   1.461       .  S
C889        H891   1.082       .  S
N892        N893   1.321       .  A
N892        C896   1.342       .  A
N893        C894   1.343       .  A
C894        C895   1.380       .  A
C894        H897   1.082       .  S
C895        C896   1.380       .  A
C896        H898   1.082       .  S
N899        N900   1.321       .  A
N899        C903   1.343       .  A
N899       Cu907   2.061       .  S
N900        C901   1.343       .  A
N900       Cu906   2.062       .  S
C901        C902   1.381       .  A
C901        H904   1.082       .  S
C902        C903   1.380       .  A
C902        C935   1.461       .  S
C903        H905   1.082       .  S
Cu906       N909   2.062       .  S
Cu907       N917   2.061       .  S
Cu908       N910   2.063       .  S
Cu908       N916   2.063       .  S
N909        N910   1.322       .  A
N909        C913   1.343       .  A
N910        C911   1.343       .  A
C911        C912   1.381       .  A
C911        H914   1.082       .  S
C912        C913   1.380       .  A
C912       C1019   1.461       .  S
C913        H915   1.082       .  S
N916        N917   1.322       .  A
N916        C920   1.343       .  A
N917        C918   1.343       .  A
C918        C919   1.380       .  A
C918        H921   1.082       .  S
C919        C920   1.381       .  A
C919       C1046   1.461       .  S
C920        H922   1.082       .  S
O923       Cu931   2.000       .  S
O923        C933   1.277       .  A
O924       Cu931   2.000   1_554  S
O924        C934   1.277       .  A
O925       Cu931   1.998       .  S
O925        C935   1.276       .  A
O926       Cu931   1.999   1_554  S
O926        C936   1.276       .  A
O927       Cu932   2.000   1_554  S
O927        C936   1.277       .  A
O928       Cu932   2.000       .  S
O928        C935   1.277       .  A
O929       Cu932   1.998   1_554  S
O929        C934   1.276       .  A
O930       Cu932   1.998       .  S
O930        C933   1.276       .  A
Cu931      Cu932   2.379       .  S
O937       Cu945   1.999       .  S
O937        C947   1.276       .  A
O938       Cu945   1.999       .  S
O938        C948   1.276       .  A
O939       Cu945   1.999       .  S
O939        C949   1.276       .  A
O940       Cu945   1.999       .  S
O940        C950   1.277       .  A
O941       Cu946   1.999       .  S
O941        C950   1.276       .  A
O942       Cu946   1.999       .  S
O942        C949   1.276       .  A
O943       Cu946   1.999       .  S
O943        C948   1.276       .  A
O944       Cu946   1.999       .  S
O944        C947   1.276       .  A
Cu945      Cu946   2.379       .  S
O951       Cu959   1.999       .  S
O951        C961   1.277       .  A
O952       Cu959   1.999       .  S
O952        C962   1.277       .  A
O953       Cu959   1.999       .  S
O953        C963   1.276       .  A
O954       Cu959   1.999       .  S
O954        C964   1.276       .  A
O955       Cu960   2.001       .  S
O955        C964   1.277       .  A
O956       Cu960   2.001       .  S
O956        C963   1.277       .  A
O957       Cu960   1.998       .  S
O957        C962   1.276       .  A
O958       Cu960   1.998       .  S
O958        C961   1.276       .  A
Cu959      Cu960   2.379       .  S
O965       Cu973   1.998       .  S
O965        C975   1.276       .  A
O966       Cu973   1.998       .  S
O966        C976   1.276       .  A
O967       Cu973   2.000       .  S
O967        C977   1.277       .  A
O968       Cu973   2.000       .  S
O968        C978   1.277       .  A
O969       Cu974   1.998       .  S
O969        C978   1.276       .  A
O970       Cu974   1.998       .  S
O970        C977   1.276       .  A
O971       Cu974   2.000       .  S
O971        C976   1.277       .  A
O972       Cu974   2.000       .  S
O972        C975   1.277       .  A
Cu973      Cu974   2.379       .  S
O979       Cu987   2.000       .  S
O979        C989   1.277       .  A
O980       Cu987   2.000       .  S
O980        C990   1.277       .  A
O981       Cu987   1.998       .  S
O981        C991   1.276       .  A
O982       Cu987   1.998       .  S
O982        C992   1.276       .  A
O983       Cu988   2.000       .  S
O983        C992   1.277       .  A
O984       Cu988   2.000       .  S
O984        C991   1.277       .  A
O985       Cu988   1.998       .  S
O985        C990   1.276       .  A
O986       Cu988   1.998       .  S
O986        C989   1.276       .  A
Cu987      Cu988   2.379       .  S
O993      Cu1001   1.998       .  S
O993       C1003   1.276       .  A
O994      Cu1001   1.998       .  S
O994       C1004   1.276       .  A
O995      Cu1001   2.000       .  S
O995       C1005   1.277       .  A
O996      Cu1001   2.000       .  S
O996       C1006   1.277       .  A
O997      Cu1002   1.998       .  S
O997       C1006   1.276       .  A
O998      Cu1002   1.998       .  S
O998       C1005   1.276       .  A
O999      Cu1002   2.000       .  S
O999       C1004   1.277       .  A
O1000     Cu1002   2.000       .  S
O1000      C1003   1.277       .  A
Cu1001    Cu1002   2.379       .  S
O1007     Cu1015   2.000       .  S
O1007      C1017   1.277       .  A
O1008     Cu1015   2.000       .  S
O1008      C1018   1.277       .  A
O1009     Cu1015   1.999       .  S
O1009      C1019   1.276       .  A
O1010     Cu1015   1.999       .  S
O1010      C1020   1.276       .  A
O1011     Cu1016   2.000       .  S
O1011      C1020   1.277       .  A
O1012     Cu1016   2.000       .  S
O1012      C1019   1.277       .  A
O1013     Cu1016   1.998       .  S
O1013      C1018   1.276       .  A
O1014     Cu1016   1.998       .  S
O1014      C1017   1.276       .  A
Cu1015    Cu1016   2.379       .  S
O1021     Cu1029   1.998       .  S
O1021      C1031   1.276       .  A
O1022     Cu1029   1.998       .  S
O1022      C1032   1.276       .  A
O1023     Cu1029   2.000       .  S
O1023      C1033   1.277       .  A
O1024     Cu1029   2.000       .  S
O1024      C1034   1.277       .  A
O1025     Cu1030   1.999       .  S
O1025      C1034   1.276       .  A
O1026     Cu1030   1.999       .  S
O1026      C1033   1.276       .  A
O1027     Cu1030   2.000       .  S
O1027      C1032   1.277       .  A
O1028     Cu1030   1.999       .  S
O1028      C1031   1.277       .  A
Cu1029    Cu1030   2.379       .  S
O1035     Cu1043   1.999       .  S
O1035      C1045   1.276       .  A
O1036     Cu1043   1.999       .  S
O1036      C1046   1.276       .  A
O1037     Cu1043   1.999       .  S
O1037      C1047   1.277       .  A
O1038     Cu1043   1.999       .  S
O1038      C1048   1.276       .  A
O1039     Cu1044   1.999       .  S
O1039      C1048   1.277       .  A
O1040     Cu1044   2.000       .  S
O1040      C1047   1.276       .  A
O1041     Cu1044   1.999       .  S
O1041      C1046   1.277       .  A
O1042     Cu1044   1.999       .  S
O1042      C1045   1.276       .  A
Cu1043    Cu1044   2.379       .  S
O1049     Cu1057   1.999       .  S
O1049      C1059   1.276       .  A
O1050     Cu1057   1.999       .  S
O1050      C1060   1.277       .  A
O1051     Cu1057   1.999       .  S
O1051      C1061   1.276       .  A
O1052     Cu1057   1.999       .  S
O1052      C1062   1.277       .  A
O1053     Cu1058   1.999       .  S
O1053      C1062   1.276       .  A
O1054     Cu1058   1.999       .  S
O1054      C1061   1.277       .  A
O1055     Cu1058   1.999       .  S
O1055      C1060   1.276       .  A
O1056     Cu1058   1.999       .  S
O1056      C1059   1.276       .  A
Cu1057    Cu1058   2.379       .  S
O1063     Cu1071   2.000       .  S
O1063      C1073   1.277       .  A
O1064     Cu1071   2.000       .  S
O1064      C1074   1.277       .  A
O1065     Cu1071   1.999       .  S
O1065      C1075   1.276       .  A
O1066     Cu1071   1.999       .  S
O1066      C1076   1.276       .  A
O1067     Cu1072   2.000       .  S
O1067      C1076   1.277       .  A
O1068     Cu1072   2.000       .  S
O1068      C1075   1.277       .  A
O1069     Cu1072   1.998       .  S
O1069      C1074   1.276       .  A
O1070     Cu1072   1.998       .  S
O1070      C1073   1.276       .  A
Cu1071    Cu1072   2.379       .  S
O1077     Cu1085   1.999       .  S
O1077      C1087   1.276       .  A
O1078     Cu1085   1.999       .  S
O1078      C1088   1.277       .  A
O1079     Cu1085   1.999       .  S
O1079      C1089   1.276       .  A
O1080     Cu1085   1.999       .  S
O1080      C1090   1.276       .  A
O1081     Cu1086   1.999       .  S
O1081      C1090   1.276       .  A
O1082     Cu1086   1.999       .  S
O1082      C1089   1.276       .  A
O1083     Cu1086   1.999       .  S
O1083      C1088   1.276       .  A
O1084     Cu1086   1.999       .  S
O1084      C1087   1.276       .  A
Cu1085    Cu1086   2.379       .  S
O1091     Cu1099   1.998       .  S
O1091      C1101   1.276       .  A
O1092     Cu1099   1.998       .  S
O1092      C1102   1.276       .  A
O1093     Cu1099   2.000       .  S
O1093      C1103   1.277       .  A
O1094     Cu1099   2.001       .  S
O1094      C1104   1.277       .  A
O1095     Cu1100   1.999       .  S
O1095      C1104   1.276       .  A
O1096     Cu1100   1.999       .  S
O1096      C1103   1.276       .  A
O1097     Cu1100   1.999       .  S
O1097      C1102   1.277       .  A
O1098     Cu1100   1.999       .  S
O1098      C1101   1.277       .  A
Cu1099    Cu1100   2.379       .  S
