geometry optimzed in LAMMPS
_audit_creation_date              2020-12-01 
_audit_creation_method            'lammps2cif' 
_symmetry_space_group_name_H-M    'P1' 
_symmetry_Int_Tables_number       1 
_symmetry_cell_setting            triclinic 
loop_ 
_symmetry_equiv_pos_as_xyz 
  x,y,z 
_cell_length_a                    30.21213157 
_cell_length_b                    27.777423250996996 
_cell_length_c                    30.190327161427508 
_cell_angle_alpha                 85.645043341644 
_cell_angle_beta                  93.27278862071033 
_cell_angle_gamma                 89.47667515235561 
loop_ 
_atom_site_label 
_atom_site_type_symbol 
_atom_site_fract_x 
_atom_site_fract_y 
_atom_site_fract_z 
_atom_site_charge 
C1          C  0.00865973  0.56060309  0.03492340     0.03900
C2          C  0.46726517  0.58208531  0.02004609    -0.12300
C3          C  0.46436727  0.62530428  0.32632532     0.01400
C4          C  0.50275661  0.64550081  0.31083956    -0.10800
C5          C  0.04311982  0.63208221  0.33318681     0.03900
C6          C  0.04696028  0.58848363  0.02695692    -0.10200
H7          H  0.43681485  0.56869253  0.03310237     0.09500
H8          H  0.50036605  0.68002929  0.29128523     0.07000
H9          H  0.07870636  0.57905118  0.04372269     0.06900
C10         C  0.00974995  0.51254014  0.06209571     0.03900
C11         C  0.47135791  0.48388694  0.06203119    -0.12300
C12         C  0.47032992  0.43959140  0.08687582     0.01400
C13         C  0.50801743  0.42277747  0.11242175    -0.10800
C14         C  0.04890711  0.44424037  0.10492988     0.03900
C15         C  0.04910023  0.49138265  0.08332180    -0.10200
H16         H  0.44261586  0.49350091  0.04017371     0.09500
H17         H  0.50743212  0.38667192  0.12867538     0.07000
H18         H  0.08070754  0.50828637  0.07880915     0.06900
O19         O  0.41325171  0.83961898  0.24793497    -0.80100
O20         O  0.28032665  0.76925242  0.06085884    -0.64800
O21         O  0.37881246  0.81566253  0.33061400    -1.11400
C22         C  0.42679039  0.65823375  0.99677774     1.06800
O23         O  0.29970175  0.69272337  0.07954079    -0.78000
O24         O  0.38534329  0.72410810  0.08844892    -0.65600
Ni25       Ni  0.36812543  0.86516398  0.28399208     1.34900
C26         C  0.41836337  0.75014795  0.07780714     0.85500
O27         O  0.31726026  0.85342498  0.04699167    -0.78600
O28         O  0.32415404  0.89881146  0.31677387    -0.88800
C29         C  0.27460636  0.72914363  0.08252651     0.85100
O30         O  0.32297058  0.83015626  0.25305947    -0.67000
O31         O  0.40862570  0.65558481  0.03358137    -0.86300
C32         C  0.28799766  0.81357300  0.26980657     0.85900
C33         C  0.31004958  0.89222613  0.35605826     1.07500
H34         H  0.32491842  0.72064708  0.98413996     0.39300
O35         O  0.34559636  0.73033282  0.00731407    -1.09000
O36         O  0.43396583  0.75022853  0.03929954    -0.65600
Ni37       Ni  0.39905092  0.75457453  0.31552069     1.26300
O38         O  0.28622141  0.80239761  0.31136588    -0.65900
O39         O  0.41837920  0.69256331  0.30076625    -0.78200
C40         C  0.44863158  0.81449213  0.25790901     0.85300
O41         O  0.45041378  0.78151525  0.28952109    -0.65300
Ni42       Ni  0.35441135  0.67913508  0.05348806     1.27400
Ni43       Ni  0.32943217  0.79197953  0.02773568     1.26100
H44         H  0.39961848  0.82884764  0.01847487     0.39800
N45         N  0.24733109  0.81356026  0.24246003    -0.02700
C46         C  0.21494693  0.84345121  0.25251555    -0.00100
C47         C  0.20034188  0.87271326  0.21555845    -0.23000
C48         C  0.22235561  0.85677184  0.18098341    -0.23200
C49         C  0.24569125  0.81609545  0.19770787    -0.00200
H50         H  0.17185871  0.89690449  0.21252163     0.13600
H51         H  0.21624676  0.86797911  0.14652490     0.13600
O52         O  0.05127165  0.79942241  0.13571353    -0.80100
O53         O  0.19005523  0.83059608  0.32372802    -0.64800
O54         O  0.09214431  0.82999033  0.06048591    -1.11400
C55         C  0.07136276  0.67333531  0.34079825     1.06800
O56         O  0.15322863  0.79743592  0.26885356    -0.78000
O57         O  0.07292356  0.76083195  0.27348628    -0.65600
Ni58       Ni  0.10189913  0.84232108  0.12057756     1.34900
C59         C  0.04925155  0.79418699  0.28663643     0.85500
O60         O  0.15101752  0.89580648  0.03401115    -0.78600
O61         O  0.14917561  0.88985474  0.10786036    -0.88800
C62         C  0.18390893  0.82399065  0.28333124     0.85100
O63         O  0.14859434  0.79258092  0.13339759    -0.67000
O64         O  0.10652960  0.67887015  0.31986399    -0.86300
C65         C  0.18429971  0.79045419  0.11210431     0.85900
C66         C  0.16419819  0.90897669  0.07156526     1.07500
H67         H  0.14786743  0.74301452  0.04061783     0.39300
O68         O  0.12859854  0.76364097  0.35388686    -1.09000
O69         O  0.04575725  0.80080993  0.32718957    -0.65600
Ni70       Ni  0.07310110  0.76779338  0.04637686     1.26300
O71         O  0.18569667  0.80915804  0.07269765    -0.65900
O72         O  0.05446522  0.70582004  0.02946475    -0.78200
C73         C  0.01557231  0.79101556  0.11161867     0.85300
O74         O  0.01842700  0.77617637  0.07314833    -0.65300
Ni75       Ni  0.13016043  0.73896084  0.29680267     1.27400
Ni76       Ni  0.14165953  0.82994845  0.02632432     1.26100
H77         H  0.07147172  0.85458287  0.04736929     0.39800
N78         N  0.48793205  0.82588837  0.23398091    -0.02700
C79         C  0.02921634  0.82912423  0.25282899    -0.00100
C80         C  0.05536220  0.85729168  0.22537728    -0.23000
C81         C  0.02962665  0.87078018  0.18752031    -0.23200
C82         C  0.48932502  0.84879231  0.19274245    -0.00200
H83         H  0.09063350  0.86299061  0.23021750     0.13600
H84         H  0.04109782  0.88866426  0.15725900     0.13600
N85         N  0.22485103  0.76748227  0.13252975    -0.02700
C86         C  0.24122748  0.77095900  0.17493127    -0.00100
C87         C  0.26078093  0.72801752  0.19165976    -0.23000
C88         C  0.25986895  0.69878454  0.15703713    -0.23200
C89         C  0.24337719  0.72651264  0.11917363    -0.00200
H90         H  0.27812373  0.72051128  0.22384848     0.13600
H91         H  0.27930808  0.66575403  0.15768055     0.13600
N92         N  0.97128007  0.80095016  0.12653936    -0.02700
C93         C  0.43078198  0.78809698  0.10815688    -0.00100
C94         C  0.39702202  0.81456424  0.12406201    -0.23000
C95         C  0.41596352  0.84483998  0.15266892    -0.23200
C96         C  0.96075427  0.83487988  0.15507551    -0.00200
H97         H  0.36182449  0.81141110  0.11621633     0.13600
H98         H  0.39843651  0.87002956  0.17116290     0.13600
O99         O  0.44000607  0.22352146  0.16788600    -0.80100
O100        O  0.30572762  0.27559758  0.99939378    -0.64800
O101        O  0.40521004  0.24234740  0.07983943    -1.11400
C102        C  0.43621511  0.40444261  0.07581917     1.06800
O103        O  0.33065827  0.34333757  0.29924114    -0.78000
O104        O  0.41740386  0.32740895  0.31548582    -0.65600
Ni105      Ni  0.39468118  0.19684574  0.12927201     1.34900
C106        C  0.45423335  0.31430083  0.00180443     0.85500
O107        O  0.34712574  0.19407490  0.02781569    -0.78600
O108        O  0.34797614  0.16205911  0.09729940    -0.88800
C109        C  0.30382327  0.30849386  0.30113381     0.85100
O110        O  0.35316599  0.23943448  0.15118036    -0.67000
O111        O  0.42154353  0.40387773  0.03550143    -0.86300
C112        C  0.31682608  0.25340921  0.13104991     0.85900
C113        C  0.33509101  0.16200907  0.05624677     1.07500
H114        H  0.34309218  0.33656930  0.07075549     0.39300
O115        O  0.36616010  0.32403241  0.05379272    -1.09000
O116        O  0.45971127  0.31090109  0.04455735    -0.65600
Ni117      Ni  0.41722162  0.30729523  0.09241051     1.26300
O118        O  0.31170910  0.25548797  0.08825394    -0.65900
O119        O  0.42718121  0.37190980  0.10519030    -0.78200
C120        C  0.46720802  0.25828905  0.16557929     0.85300
O121        O  0.46613825  0.29021427  0.13321801    -0.65300
Ni122      Ni  0.37567718  0.36940850  0.00422228     1.27400
Ni123      Ni  0.35481586  0.25900315  0.04082643     1.26100
H124        H  0.42840365  0.22950951  0.06314142     0.39800
N125        N  0.26800086  0.30967087  0.26778029    -0.02700
C126        C  0.27402957  0.30886201  0.22335835    -0.00100
C127        C  0.24400267  0.34081879  0.19986820    -0.23000
C128        C  0.21746896  0.35917765  0.23025036    -0.23200
C129        C  0.23255532  0.33873254  0.27145915    -0.00200
H130        H  0.23736030  0.34465640  0.16414833     0.13600
H131        H  0.18795969  0.38132049  0.22261560     0.13600
O132        O  0.17425220  0.36783984  0.31169794    -0.80100
O133        O  0.05577968  0.27387096  0.12386151    -0.64800
O134        O  0.15069087  0.33467125  0.06449432    -1.11400
C135        C  0.18101207  0.17428362  0.02745673     1.06800
O136        O  0.09868843  0.21177268  0.15092815    -0.78000
O137        O  0.18126804  0.19663511  0.12668002    -0.65600
Ni138      Ni  0.14422698  0.39278979  0.02678777     1.34900
C139        C  0.21128468  0.22793684  0.12171738     0.85500
O140        O  0.08327613  0.36627651  0.11542582    -0.78600
O141        O  0.11348644  0.42406379  0.07051071    -0.88800
C142        C  0.06560428  0.23973403  0.15351342     0.85100
O143        O  0.08887328  0.37772176  0.33133836    -0.67000
O144        O  0.14983396  0.15916776  0.05130870    -0.86300
C145        C  0.05768400  0.34911538  0.00777366     0.85900
C146        C  0.08585394  0.41007722  0.09896428     1.07500
H147        H  0.09786268  0.24450658  0.04170350     0.39300
O148        O  0.11904436  0.24967567  0.06602914    -1.09000
O149        O  0.20929608  0.26228724  0.09106772    -0.65600
Ni150      Ni  0.16910016  0.27720526  0.03954531     1.26300
O151        O  0.05872782  0.32038804  0.04280968    -0.65900
O152        O  0.18717133  0.21880574  0.01613865    -0.78200
C153        C  0.20760326  0.33954587  0.31202652     0.85300
O154        O  0.21670649  0.30861102  0.01105572    -0.65300
Ni155      Ni  0.12380048  0.18853283  0.09931856     1.27400
Ni156      Ni  0.10129988  0.30679096  0.09252487     1.26100
H157        H  0.17217919  0.34168650  0.08799660     0.39800
N158        N  0.49156222  0.30991740  0.30763796    -0.02700
C159        C  0.01977105  0.34749761  0.30833721    -0.00100
C160        C  0.01907131  0.37315680  0.26732928    -0.23000
C161        C  0.99396631  0.34697265  0.23894518    -0.23200
C162        C  0.48322297  0.30455463  0.26317328    -0.00200
H163        H  0.04030598  0.40276521  0.25740257     0.13600
H164        H  0.99435857  0.35241376  0.20312105     0.13600
N165        N  0.27936308  0.26023703  0.15802782    -0.02700
C166        C  0.24858796  0.22541038  0.15541711    -0.00100
C167        C  0.24673865  0.19844882  0.19559235    -0.23000
C168        C  0.27286597  0.22157729  0.22557046    -0.23200
C169        C  0.28680118  0.26367238  0.20296462    -0.00200
H170        H  0.22324313  0.17049974  0.20400308     0.13600
H171        H  0.27109651  0.21515945  0.26125219     0.13600
N172        N  0.50271276  0.25849404  0.19922198    -0.02700
C173        C  0.49765343  0.25947324  0.24371484    -0.00100
C174        C  0.03146655  0.23176355  0.26652034    -0.23000
C175        C  0.05941159  0.21729361  0.23543255    -0.23200
C176        C  0.04130377  0.23544692  0.19452417    -0.00200
H177        H  0.03956158  0.22956845  0.30202701     0.13600
H178        H  0.09163302  0.20014986  0.24239476     0.13600
C179        C  0.24754085  0.00725693  0.04688665     0.03900
C180        C  0.20904936  0.98560297  0.06420448    -0.12300
C181        C  0.20654558  0.93524070  0.07114490     0.01400
C182        C  0.24296945  0.90722868  0.06174997    -0.10800
C183        C  0.27887301  0.92696423  0.03989857     0.03900
C184        C  0.28145581  0.97728299  0.03284551    -0.10200
H185        H  0.18086928  0.00735482  0.07146470     0.07100
H186        H  0.24095502  0.86846639  0.39970305     0.07000
H187        H  0.30940939  0.99295573  0.01632318     0.06900
C188        C  0.25152504  0.06079964  0.04086851     0.03900
C189        C  0.29274725  0.08313260  0.05023341    -0.12300
C190        C  0.29663470  0.13330728  0.04221853     0.01400
C191        C  0.26003934  0.16039698  0.02430509    -0.10800
C192        C  0.21785393  0.14056639  0.02134401     0.03900
C193        C  0.21380211  0.09031288  0.02808507    -0.10200
H194        H  0.32121245  0.06186074  0.06394232     0.09500
H195        H  0.26339005  0.19918869  0.01981282     0.07000
H196        H  0.18118944  0.07478902  0.02465813     0.06900
C197        C  0.00865933  0.56059852  0.36825463     0.03900
C198        C  0.46726529  0.58208087  0.35337422    -0.12300
C199        C  0.46436708  0.62530000  0.65965899     0.01400
C200        C  0.50275499  0.64549700  0.64417105    -0.10800
C201        C  0.04311821  0.63208125  0.66651906     0.03900
C202        C  0.04696073  0.58847797  0.36028870    -0.10200
H203        H  0.43681419  0.56868756  0.36642836     0.09500
H204        H  0.50036281  0.68002536  0.62461652     0.07000
H205        H  0.07870455  0.57904844  0.37706111     0.06900
C206        C  0.00974834  0.51253547  0.39542844     0.03900
C207        C  0.47135672  0.48388176  0.39536149    -0.12300
C208        C  0.47032797  0.43958571  0.42020602     0.01400
C209        C  0.50801508  0.42277052  0.44575261    -0.10800
C210        C  0.04890535  0.44423365  0.43826331     0.03900
C211        C  0.04909876  0.49137534  0.41665277    -0.10200
H212        H  0.44261711  0.49349478  0.37350011     0.09500
H213        H  0.50742938  0.38666320  0.46200281     0.07000
H214        H  0.08070671  0.50827371  0.41213003     0.06900
O215        O  0.41325131  0.83961596  0.58127012    -0.80100
O216        O  0.28032802  0.76924769  0.39418954    -0.64800
O217        O  0.37881211  0.81565982  0.66394886    -1.11400
C218        C  0.42679197  0.65823092  0.33010800     1.06800
O219        O  0.29970183  0.69271816  0.41286867    -0.78000
O220        O  0.38534428  0.72410201  0.42177741    -0.65600
Ni221      Ni  0.36812442  0.86516104  0.61732671     1.34900
C222        C  0.41836544  0.75014051  0.41113681     0.85500
O223        O  0.31726479  0.85341817  0.38032819    -0.78600
O224        O  0.32415244  0.89880963  0.65010615    -0.88800
C225        C  0.27460829  0.72913893  0.41585746     0.85100
O226        O  0.32296993  0.83015289  0.58639484    -0.67000
O227        O  0.40862721  0.65558150  0.36691152    -0.86300
C228        C  0.28799764  0.81356762  0.60314167     0.85900
C229        C  0.31004858  0.89222518  0.68939054     1.07500
H230        H  0.32492324  0.72064480  0.31747123     0.39300
O231        O  0.34559656  0.73032803  0.34064181    -1.09000
O232        O  0.43396837  0.75022170  0.37262955    -0.65600
Ni233      Ni  0.39905055  0.75457088  0.64885514     1.26300
O234        O  0.28622170  0.80239086  0.64470084    -0.65900
O235        O  0.41838191  0.69256054  0.63410164    -0.78200
C236        C  0.44863042  0.81448680  0.59124261     0.85300
O237        O  0.45041242  0.78150902  0.62285367    -0.65300
Ni238      Ni  0.35441187  0.67913050  0.38681613     1.27400
Ni239      Ni  0.32943397  0.79197422  0.36106710     1.26100
H240        H  0.39961593  0.82883812  0.35180024     0.39800
N241        N  0.24733146  0.81355225  0.57579440    -0.02700
C242        C  0.21494837  0.84344492  0.58584800    -0.00100
C243        C  0.20034681  0.87270910  0.54889046    -0.23000
C244        C  0.22236198  0.85676799  0.51431607    -0.23200
C245        C  0.24569302  0.81608843  0.53104218    -0.00200
H246        H  0.17186937  0.89690833  0.54585433     0.13600
H247        H  0.21625861  0.86797984  0.47985732     0.13600
O248        O  0.05127160  0.79941150  0.46905168    -0.80100
O249        O  0.19005714  0.83059574  0.65706111    -0.64800
O250        O  0.09214563  0.82997853  0.39382335    -1.11400
C251        C  0.07135969  0.67333590  0.67413170     1.06800
O252        O  0.15322808  0.79743451  0.60218865    -0.78000
O253        O  0.07292464  0.76082917  0.60682012    -0.65600
Ni254      Ni  0.10190038  0.84230955  0.45391509     1.34900
C255        C  0.04925227  0.79418513  0.61996889     0.85500
O256        O  0.15101802  0.89579587  0.36734663    -0.78600
O257        O  0.14917638  0.88984455  0.44119644    -0.88800
C258        C  0.18391045  0.82398747  0.61666492     0.85100
O259        O  0.14859627  0.79256870  0.46672988    -0.67000
O260        O  0.10653047  0.67886856  0.65320339    -0.86300
C261        C  0.18430327  0.79044645  0.44543824     0.85900
C262        C  0.16419823  0.90896665  0.40490071     1.07500
H263        H  0.14787021  0.74300433  0.37395056     0.39300
O264        O  0.12859762  0.76364219  0.68721921    -1.09000
O265        O  0.04575852  0.80081101  0.66052129    -0.65600
Ni266      Ni  0.07310266  0.76778133  0.37971321     1.26300
O267        O  0.18570095  0.80915210  0.40603243    -0.65900
O268        O  0.05446781  0.70580778  0.36279899    -0.78200
C269        C  0.01557301  0.79100677  0.44495460     0.85300
O270        O  0.01842910  0.77616444  0.40648577    -0.65300
Ni271      Ni  0.13016129  0.73895880  0.63013820     1.27400
Ni272      Ni  0.14166122  0.82993793  0.35966008     1.26100
H273        H  0.07147313  0.85457014  0.38070757     0.39800
N274        N  0.48793076  0.82588134  0.56731361    -0.02700
C275        C  0.02921502  0.82912050  0.58616141    -0.00100
C276        C  0.05535974  0.85728873  0.55870945    -0.23000
C277        C  0.02962465  0.87077169  0.52085098    -0.23200
C278        C  0.48932285  0.84878393  0.52607470    -0.00200
H279        H  0.09063207  0.86298311  0.56354661     0.13600
H280        H  0.04109843  0.88864599  0.49058650     0.13600
N281        N  0.22485473  0.76747557  0.46586391    -0.02700
C282        C  0.24123187  0.77095228  0.50826503    -0.00100
C283        C  0.26078900  0.72801161  0.52499181    -0.23000
C284        C  0.25987296  0.69877722  0.49036981    -0.23200
C285        C  0.24338142  0.72650688  0.45250699    -0.00200
H286        H  0.27813557  0.72050645  0.55717884     0.13600
H287        H  0.27930977  0.66574514  0.49101216     0.13600
N288        N  0.97127990  0.80094282  0.45987147    -0.02700
C289        C  0.43078303  0.78808722  0.44148833    -0.00100
C290        C  0.39702136  0.81455150  0.45739263    -0.23000
C291        C  0.41596036  0.84482614  0.48600192    -0.23200
C292        C  0.96075168  0.83486913  0.48840931    -0.00200
H293        H  0.36182538  0.81140681  0.44953385     0.13600
H294        H  0.39843301  0.87002305  0.50448780     0.13600
O295        O  0.44000369  0.22352150  0.50122183    -0.80100
O296        O  0.30572363  0.27559252  0.33273134    -0.64800
O297        O  0.40520714  0.24233974  0.41317463    -1.11400
C298        C  0.43621239  0.40443717  0.40915091     1.06800
O299        O  0.33065562  0.34334450  0.63257366    -0.78000
O300        O  0.41740435  0.32741676  0.64881921    -0.65600
Ni301      Ni  0.39468178  0.19683888  0.46260895     1.34900
C302        C  0.45422924  0.31429542  0.33513568     0.85500
O303        O  0.34712341  0.19406907  0.36115294    -0.78600
O304        O  0.34797845  0.16204939  0.43063644    -0.88800
C305        C  0.30382307  0.30849799  0.63446529     0.85100
O306        O  0.35316383  0.23942174  0.48451952    -0.67000
O307        O  0.42154151  0.40386996  0.36883316    -0.86300
C308        C  0.31682423  0.25339705  0.46438887     0.85900
C309        C  0.33509059  0.16200206  0.38958392     1.07500
H310        H  0.34309535  0.33656430  0.40409770     0.39300
O311        O  0.36615906  0.32402577  0.38712997    -1.09000
O312        O  0.45970614  0.31089580  0.37788851    -0.65600
Ni313      Ni  0.41722068  0.30728873  0.42574433     1.26300
O314        O  0.31170690  0.25547685  0.42159300    -0.65900
O315        O  0.42718031  0.37190427  0.43852303    -0.78200
C316        C  0.46720618  0.25828836  0.49891310     0.85300
O317        O  0.46613891  0.29020907  0.46654846    -0.65300
Ni318      Ni  0.37567392  0.36940089  0.33755646     1.27400
Ni319      Ni  0.35481259  0.25899645  0.37416404     1.26100
H320        H  0.42839768  0.22949934  0.39647260     0.39800
N321        N  0.26799913  0.30967462  0.60111402    -0.02700
C322        C  0.27402501  0.30886287  0.55669219    -0.00100
C323        C  0.24399327  0.34081564  0.53320290    -0.23000
C324        C  0.21746192  0.35917627  0.56358643    -0.23200
C325        C  0.23255254  0.33873452  0.60479458    -0.00200
H326        H  0.23734395  0.34464663  0.49748394     0.13600
H327        H  0.18794918  0.38131413  0.55595346     0.13600
O328        O  0.17425001  0.36784014  0.64503598    -0.80100
O329        O  0.05577349  0.27386009  0.45719219    -0.64800
O330        O  0.15068936  0.33466282  0.39783034    -1.11400
C331        C  0.18101142  0.17427427  0.36079457     1.06800
O332        O  0.09868875  0.21177107  0.48426641    -0.78000
O333        O  0.18126769  0.19662882  0.46001971    -0.65600
Ni334      Ni  0.14422628  0.39278170  0.36012450     1.34900
C335        C  0.21128295  0.22793169  0.45505633     0.85500
O336        O  0.08327330  0.36626840  0.44875899    -0.78600
O337        O  0.11348812  0.42405643  0.40384820    -0.88800
C338        C  0.06560013  0.23972729  0.48684762     0.85100
O339        O  0.08886936  0.37772608  0.66468069    -0.67000
O340        O  0.14983691  0.15915747  0.38465113    -0.86300
C341        C  0.05768311  0.34910822  0.34110801     0.85900
C342        C  0.08585271  0.41006963  0.43229879     1.07500
H343        H  0.09786207  0.24449621  0.37503983     0.39300
O344        O  0.11904359  0.24966688  0.39936580    -1.09000
O345        O  0.20929264  0.26228155  0.42440602    -0.65600
Ni346      Ni  0.16909813  0.27719646  0.37288173     1.26300
O347        O  0.05872707  0.32037940  0.37614269    -0.65900
O348        O  0.18716825  0.21879650  0.34947455    -0.78200
C349        C  0.20760186  0.33954712  0.64536288     0.85300
O350        O  0.21670380  0.30860103  0.34439106    -0.65300
Ni351      Ni  0.12380086  0.18852594  0.43265842     1.27400
Ni352      Ni  0.10129698  0.30678209  0.42585922     1.26100
H353        H  0.17217786  0.34167831  0.42133239     0.39800
N354        N  0.49156062  0.30991718  0.64097171    -0.02700
C355        C  0.01977178  0.34749504  0.64167200    -0.00100
C356        C  0.01907852  0.37314931  0.60066232    -0.23000
C357        C  0.99396698  0.34697152  0.57227828    -0.23200
C358        C  0.48322108  0.30455463  0.59650669    -0.00200
H359        H  0.04031836  0.40275282  0.59073591     0.13600
H360        H  0.99435374  0.35241585  0.53645370     0.13600
N361        N  0.27936247  0.26023261  0.49136571    -0.02700
C362        C  0.24858584  0.22540773  0.48875699    -0.00100
C363        C  0.24673814  0.19844801  0.52893289    -0.23000
C364        C  0.27286789  0.22157732  0.55890911    -0.23200
C365        C  0.28680145  0.26367229  0.53630160    -0.00200
H366        H  0.22324462  0.17049726  0.53734439     0.13600
H367        H  0.27110301  0.21515875  0.59459120     0.13600
N368        N  0.50271070  0.25849434  0.53255572    -0.02700
C369        C  0.49765025  0.25947262  0.57704833    -0.00100
C370        C  0.03146108  0.23175965  0.59985444    -0.23000
C371        C  0.05940655  0.21728899  0.56876735    -0.23200
C372        C  0.04130015  0.23544385  0.52785876    -0.00200
H373        H  0.03955467  0.22956234  0.63536138     0.13600
H374        H  0.09162651  0.20014177  0.57573006     0.13600
C375        C  0.24753993  0.00724789  0.38022085     0.03900
C376        C  0.20904833  0.98559319  0.39753768    -0.12300
C377        C  0.20654529  0.93523084  0.40447977     0.01400
C378        C  0.24297113  0.90721887  0.39509000    -0.10800
C379        C  0.27887329  0.92695477  0.37323660     0.03900
C380        C  0.28145502  0.97727353  0.36618119    -0.10200
H381        H  0.18086835  0.00734509  0.40479783     0.07100
H382        H  0.24095195  0.86846773  0.73303033     0.07000
H383        H  0.30940859  0.99294597  0.34965878     0.06900
C384        C  0.25152435  0.06079163  0.37420329     0.03900
C385        C  0.29274644  0.08312594  0.38356829    -0.12300
C386        C  0.29663369  0.13330101  0.37555533     0.01400
C387        C  0.26003822  0.16039071  0.35764245    -0.10800
C388        C  0.21785349  0.14055859  0.35467903     0.03900
C389        C  0.21380243  0.09030406  0.36141361    -0.10200
H390        H  0.32121266  0.06185470  0.39727485     0.09500
H391        H  0.26338816  0.19918270  0.35315082     0.07000
H392        H  0.18119129  0.07477815  0.35797624     0.06900
C393        C  0.00865952  0.56059736  0.70158986     0.03900
C394        C  0.46726587  0.58207816  0.68670949    -0.12300
C395        C  0.46436615  0.62530766  0.99299587     0.01400
C396        C  0.50275473  0.64550310  0.97750699    -0.10800
C397        C  0.04311680  0.63209010  0.99985880     0.03900
C398        C  0.04696059  0.58847705  0.69362158    -0.10200
H399        H  0.43681537  0.56868543  0.69976519     0.09500
H400        H  0.50036385  0.68002763  0.95794649     0.07000
H401        H  0.07870487  0.57904902  0.71039366     0.06900
C402        C  0.00974695  0.51253485  0.72876329     0.03900
C403        C  0.47135439  0.48388186  0.72869628    -0.12300
C404        C  0.47032526  0.43958696  0.75354179     0.01400
C405        C  0.50801340  0.42277059  0.77908594    -0.10800
C406        C  0.04890396  0.44423339  0.77159705     0.03900
C407        C  0.04909718  0.49137538  0.74998790    -0.10200
H408        H  0.44261475  0.49349390  0.70683414     0.09500
H409        H  0.50742749  0.38666347  0.79533604     0.07000
H410        H  0.08070453  0.50827601  0.74546801     0.06900
O411        O  0.41325350  0.83962253  0.91460176    -0.80100
O412        O  0.28032750  0.76924551  0.72752730    -0.64800
O413        O  0.37881051  0.81566742  0.99728195    -1.11400
C414        C  0.42679286  0.65822687  0.66344234     1.06800
O415        O  0.29969924  0.69271463  0.74620270    -0.78000
O416        O  0.38534126  0.72409764  0.75511218    -0.65600
Ni417      Ni  0.36812620  0.86516826  0.95065867     1.34900
C418        C  0.41836084  0.75013846  0.74447070     0.85500
O419        O  0.31726359  0.85341718  0.71366077    -0.78600
O420        O  0.32415677  0.89881928  0.98343875    -0.88800
C421        C  0.27460657  0.72913579  0.74919359     0.85100
O422        O  0.32296861  0.83016161  0.91972761    -0.67000
O423        O  0.40862490  0.65557467  0.70024422    -0.86300
C424        C  0.28799649  0.81357571  0.93647492     0.85900
C425        C  0.31004958  0.89223424  0.02272187     1.07500
H426        H  0.32492256  0.72064313  0.65080480     0.39300
O427        O  0.34559664  0.73032563  0.67397712    -1.09000
O428        O  0.43396558  0.75021732  0.70596442    -0.65600
Ni429      Ni  0.39904960  0.75457859  0.98219028     1.26300
O430        O  0.28622051  0.80239764  0.97803365    -0.65900
O431        O  0.41837748  0.69256589  0.96743575    -0.78200
C432        C  0.44863173  0.81449203  0.92457438     0.85300
O433        O  0.45041317  0.78151709  0.95618834    -0.65300
Ni434      Ni  0.35440963  0.67912628  0.72014948     1.27400
Ni435      Ni  0.32943368  0.79197175  0.69440254     1.26100
H436        H  0.39961562  0.82883595  0.68513477     0.39800
N437        N  0.24733073  0.81355760  0.90912842    -0.02700
C438        C  0.21494797  0.84345117  0.91918172    -0.00100
C439        C  0.20034585  0.87271204  0.88222345    -0.23000
C440        C  0.22235907  0.85676731  0.84764945    -0.23200
C441        C  0.24569299  0.81609090  0.86437626    -0.00200
H442        H  0.17186533  0.89690662  0.87918621     0.13600
H443        H  0.21625149  0.86797342  0.81319060     0.13600
O444        O  0.05126981  0.79941501  0.80238125    -0.80100
O445        O  0.19005394  0.83060602  0.99039403    -0.64800
O446        O  0.09214718  0.82998043  0.72715461    -1.11400
C447        C  0.07136044  0.67334379  0.00746878     1.06800
O448        O  0.15322778  0.79744075  0.93552178    -0.78000
O449        O  0.07292314  0.76083485  0.94015136    -0.65600
Ni450      Ni  0.10190059  0.84231183  0.78724622     1.34900
C451        C  0.04925253  0.79419282  0.95329923     0.85500
O452        O  0.15102106  0.89579679  0.70068049    -0.78600
O453        O  0.14917786  0.88984586  0.77452990    -0.88800
C454        C  0.18390844  0.82399612  0.94999810     0.85100
O455        O  0.14859626  0.79257078  0.80006382    -0.67000
O456        O  0.10652982  0.67887468  0.98653798    -0.86300
C457        C  0.18430304  0.79044435  0.77877230     0.85900
C458        C  0.16420042  0.90896796  0.73823466     1.07500
H459        H  0.14786829  0.74300501  0.70728336     0.39300
O460        O  0.12859648  0.76365139  0.02055222    -1.09000
O461        O  0.04575960  0.80082068  0.99385127    -0.65600
Ni462      Ni  0.07310173  0.76778295  0.71304517     1.26300
O463        O  0.18570131  0.80914643  0.73936495    -0.65900
O464        O  0.05446432  0.70580904  0.69613163    -0.78200
C465        C  0.01557095  0.79100762  0.77828536     0.85300
O466        O  0.01842710  0.77616586  0.73981655    -0.65300
Ni467      Ni  0.13016010  0.73896539  0.96347176     1.27400
Ni468      Ni  0.14166284  0.82993859  0.69299259     1.26100
H469        H  0.07147618  0.85457378  0.71403754     0.39800
N470        N  0.48793222  0.82588522  0.90064475    -0.02700
C471        C  0.02921585  0.82912778  0.91949198    -0.00100
C472        C  0.05535996  0.85729562  0.89203857    -0.23000
C473        C  0.02962414  0.87077421  0.85417946    -0.23200
C474        C  0.48932380  0.84878419  0.85940478    -0.00200
H475        H  0.09063251  0.86299027  0.89687391     0.13600
H476        H  0.04109664  0.88864611  0.82391343     0.13600
N477        N  0.22485354  0.76747284  0.79920040    -0.02700
C478        C  0.24123254  0.77095342  0.84160069    -0.00100
C479        C  0.26079224  0.72801490  0.85832876    -0.23000
C480        C  0.25987684  0.69877777  0.82370884    -0.23200
C481        C  0.24338154  0.72650389  0.78584511    -0.00200
H482        H  0.27814484  0.72051550  0.89051338     0.13600
H483        H  0.27932137  0.66575087  0.82435202     0.13600
N484        N  0.97127774  0.80093890  0.79320505    -0.02700
C485        C  0.43077966  0.78808586  0.77482168    -0.00100
C486        C  0.39701941  0.81455227  0.79072663    -0.23000
C487        C  0.41596089  0.84482585  0.81933540    -0.23200
C488        C  0.96075129  0.83486644  0.82174198    -0.00200
H489        H  0.36182295  0.81141012  0.78286911     0.13600
H490        H  0.39843609  0.87002520  0.83782073     0.13600
O491        O  0.44000940  0.22351789  0.83455144    -0.80100
O492        O  0.30572610  0.27559428  0.66606084    -0.64800
O493        O  0.40520986  0.24234353  0.74650481    -1.11400
C494        C  0.43621072  0.40443862  0.74248502     1.06800
O495        O  0.33066184  0.34334471  0.96590651    -0.78000
O496        O  0.41740812  0.32741547  0.98215546    -0.65600
Ni497      Ni  0.39468556  0.19684048  0.79593814     1.34900
C498        C  0.45422865  0.31429894  0.66846940     0.85500
O499        O  0.34712780  0.19407169  0.69448404    -0.78600
O500        O  0.34798009  0.16205405  0.76396754    -0.88800
C501        C  0.30382713  0.30850039  0.96779786     0.85100
O502        O  0.35317007  0.23942545  0.81784956    -0.67000
O503        O  0.42154081  0.40387321  0.70216698    -0.86300
C504        C  0.31683004  0.25340142  0.79771982     0.85900
C505        C  0.33509398  0.16200531  0.72291503     1.07500
H506        H  0.34309152  0.33656485  0.73742466     0.39300
O507        O  0.36615835  0.32402850  0.72045974    -1.09000
O508        O  0.45970634  0.31089911  0.71122207    -0.65600
Ni509      Ni  0.41722003  0.30729109  0.75907630     1.26300
O510        O  0.31171114  0.25548134  0.75492400    -0.65900
O511        O  0.42717740  0.37190540  0.77185607    -0.78200
C512        C  0.46720857  0.25828770  0.83224583     0.85300
O513        O  0.46613888  0.29021090  0.79988252    -0.65300
Ni514      Ni  0.37567285  0.36940666  0.67088904     1.27400
Ni515      Ni  0.35481515  0.25899953  0.70749379     1.26100
H516        H  0.42840194  0.22950603  0.72980413     0.39800
N517        N  0.26800518  0.30967776  0.93444417    -0.02700
C518        C  0.27403367  0.30886590  0.89002277    -0.00100
C519        C  0.24400193  0.34081626  0.86653114    -0.23000
C520        C  0.21746605  0.35917352  0.89691213    -0.23200
C521        C  0.23255645  0.33873560  0.93812180    -0.00200
H522        H  0.23736095  0.34465330  0.83081115     0.13600
H523        H  0.18795578  0.38131470  0.88927712     0.13600
O524        O  0.17425484  0.36784843  0.97836056    -0.80100
O525        O  0.05577461  0.27385454  0.79052770    -0.64800
O526        O  0.15068853  0.33466042  0.73116840    -1.11400
C527        C  0.18101524  0.17427260  0.69413218     1.06800
O528        O  0.09869289  0.21176895  0.81760493    -0.78000
O529        O  0.18127257  0.19663125  0.79335849    -0.65600
Ni530      Ni  0.14422617  0.39278151  0.69346451     1.34900
C531        C  0.21128811  0.22793350  0.78839308     0.85500
O532        O  0.08326818  0.36626623  0.78209072    -0.78600
O533        O  0.11349304  0.42405742  0.73719088    -0.88800
C534        C  0.06560371  0.23972484  0.82018562     0.85100
O535        O  0.08887447  0.37772774  0.99800251    -0.67000
O536        O  0.14984281  0.15915502  0.71799109    -0.86300
C537        C  0.05768189  0.34910647  0.67444567     0.85900
C538        C  0.08585271  0.41006933  0.76563595     1.07500
H539        H  0.09786451  0.24448974  0.70837759     0.39300
O540        O  0.11904616  0.24966284  0.73270378    -1.09000
O541        O  0.20929735  0.26228176  0.75774114    -0.65600
Ni542      Ni  0.16909925  0.27719440  0.70621855     1.26300
O543        O  0.05872787  0.32037261  0.70947716    -0.65900
O544        O  0.18717018  0.21879491  0.68281082    -0.78200
C545        C  0.20760581  0.33955375  0.97868975     0.85300
O546        O  0.21670298  0.30860033  0.67772558    -0.65300
Ni547      Ni  0.12380601  0.18852343  0.76599765     1.27400
Ni548      Ni  0.10129634  0.30677851  0.75919509     1.26100
H549        H  0.17217393  0.34167456  0.75467153     0.39800
N550        N  0.49156419  0.30992405  0.97430407    -0.02700
C551        C  0.01977268  0.34750408  0.97500198    -0.00100
C552        C  0.01907609  0.37315846  0.93399138    -0.23000
C553        C  0.99396621  0.34697672  0.90560900    -0.23200
C554        C  0.48322279  0.30456022  0.92983941    -0.00200
H555        H  0.04031274  0.40276442  0.92406299     0.13600
H556        H  0.99435133  0.35241912  0.86978422     0.13600
N557        N  0.27936903  0.26023509  0.82469776    -0.02700
C558        C  0.24859386  0.22540860  0.82209096    -0.00100
C559        C  0.24675000  0.19844829  0.86226746    -0.23000
C560        C  0.27287848  0.22158082  0.89224235    -0.23200
C561        C  0.28680975  0.26367556  0.86963314    -0.00200
H562        H  0.22325762  0.17049718  0.87068143     0.13600
H563        H  0.27111286  0.21516498  0.92792459     0.13600
N564        N  0.50271216  0.25849425  0.86589027    -0.02700
C565        C  0.49765116  0.25947693  0.91038294    -0.00100
C566        C  0.03146235  0.23176670  0.93319170    -0.23000
C567        C  0.05940629  0.21728927  0.90210619    -0.23200
C568        C  0.04130100  0.23544081  0.86119580    -0.00200
H569        H  0.03955737  0.22957567  0.96869843     0.13600
H570        H  0.09162596  0.20014209  0.90907099     0.13600
C571        C  0.24754328  0.00724959  0.71355499     0.03900
C572        C  0.20905043  0.98559599  0.73087114    -0.12300
C573        C  0.20654684  0.93523328  0.73781369     0.01400
C574        C  0.24297046  0.90722036  0.72842044    -0.10800
C575        C  0.27887352  0.92695525  0.70656896     0.03900
C576        C  0.28145913  0.97727420  0.69951865    -0.10200
H577        H  0.18087155  0.00734824  0.73813416     0.07100
H578        H  0.24095058  0.86847613  0.06635872     0.07000
H579        H  0.30941625  0.99294593  0.68300202     0.06900
C580        C  0.25152970  0.06079263  0.70753664     0.03900
C581        C  0.29275344  0.08312699  0.71689670    -0.12300
C582        C  0.29663840  0.13330240  0.70888606     0.01400
C583        C  0.26004079  0.16039103  0.69097778    -0.10800
C584        C  0.21785660  0.14055774  0.68801292     0.03900
C585        C  0.21380651  0.09030402  0.69475074    -0.10200
H586        H  0.32122137  0.06185653  0.73060065     0.09500
H587        H  0.26338882  0.19918357  0.68649388     0.07000
H588        H  0.18119472  0.07477822  0.69132057     0.06900
C589        C  0.50865967  0.56060308  0.03492341     0.03900
C590        C  0.96726523  0.58208531  0.02004609    -0.12300
C591        C  0.96436723  0.62530428  0.32632539     0.01400
C592        C  0.00275658  0.64550083  0.31083958    -0.10800
C593        C  0.54311983  0.63208221  0.33318681     0.03900
C594        C  0.54696026  0.58848360  0.02695696    -0.10200
H595        H  0.93681494  0.56869251  0.03310236     0.09500
H596        H  0.00036603  0.68002933  0.29128525     0.07000
H597        H  0.57870633  0.57905113  0.04372277     0.06900
C598        C  0.50974987  0.51254015  0.06209572     0.03900
C599        C  0.97135798  0.48388692  0.06203115    -0.12300
C600        C  0.97032994  0.43959138  0.08687581     0.01400
C601        C  0.00801747  0.42277744  0.11242174    -0.10800
C602        C  0.54890704  0.44424038  0.10492990     0.03900
C603        C  0.54910015  0.49138265  0.08332179    -0.10200
H604        H  0.94261596  0.49350091  0.04017366     0.09500
H605        H  0.00743217  0.38667190  0.12867538     0.07000
H606        H  0.58070746  0.50828635  0.07880911     0.06900
O607        O  0.91325168  0.83961891  0.24793495    -0.80100
O608        O  0.78032675  0.76925241  0.06085886    -0.64800
O609        O  0.87881240  0.81566253  0.33061400    -1.11400
C610        C  0.92679035  0.65823372  0.99677773     1.06800
O611        O  0.79970172  0.69272332  0.07954075    -0.78000
O612        O  0.88534322  0.72410814  0.08844892    -0.65600
Ni613      Ni  0.86812541  0.86516397  0.28399208     1.34900
C614        C  0.91836333  0.75014796  0.07780715     0.85500
O615        O  0.81726020  0.85342487  0.04699166    -0.78600
O616        O  0.82415402  0.89881145  0.31677387    -0.88800
C617        C  0.77460641  0.72914363  0.08252653     0.85100
O618        O  0.82297049  0.83015629  0.25305950    -0.67000
O619        O  0.90862578  0.65558486  0.03358142    -0.86300
C620        C  0.78799756  0.81357301  0.26980659     0.85900
C621        C  0.81004954  0.89222614  0.35605825     1.07500
H622        H  0.82491787  0.72064688  0.98413941     0.39300
O623        O  0.84559642  0.73033284  0.00731408    -1.09000
O624        O  0.93396580  0.75022849  0.03929956    -0.65600
Ni625      Ni  0.89905093  0.75457453  0.31552075     1.26300
O626        O  0.78622130  0.80239758  0.31136589    -0.65900
O627        O  0.91837917  0.69256330  0.30076636    -0.78200
C628        C  0.94863159  0.81449211  0.25790902     0.85300
O629        O  0.95041381  0.78151526  0.28952110    -0.65300
Ni630      Ni  0.85441136  0.67913508  0.05348804     1.27400
Ni631      Ni  0.82943224  0.79197949  0.02773567     1.26100
H632        H  0.89961909  0.82884798  0.01847535     0.39800
N633        N  0.74733101  0.81356023  0.24246003    -0.02700
C634        C  0.71494689  0.84345123  0.25251554    -0.00100
C635        C  0.70034192  0.87271332  0.21555842    -0.23000
C636        C  0.72235567  0.85677187  0.18098340    -0.23200
C637        C  0.74569120  0.81609542  0.19770788    -0.00200
H638        H  0.67185879  0.89690459  0.21252157     0.13600
H639        H  0.71624681  0.86797914  0.14652489     0.13600
O640        O  0.55127164  0.79942243  0.13571352    -0.80100
O641        O  0.69005521  0.83059610  0.32372800    -0.64800
O642        O  0.59214432  0.82999035  0.06048590    -1.11400
C643        C  0.57136279  0.67333531  0.34079825     1.06800
O644        O  0.65322867  0.79743587  0.26885354    -0.78000
O645        O  0.57292363  0.76083197  0.27348626    -0.65600
Ni646      Ni  0.60189912  0.84232109  0.12057755     1.34900
C647        C  0.54925155  0.79418695  0.28663644     0.85500
O648        O  0.65101761  0.89580645  0.03401114    -0.78600
O649        O  0.64917560  0.88985477  0.10786035    -0.88800
C650        C  0.68390888  0.82399070  0.28333122     0.85100
O651        O  0.64859431  0.79258090  0.13339753    -0.67000
O652        O  0.60652966  0.67887014  0.31986404    -0.86300
C653        C  0.68429971  0.79045419  0.11210428     0.85900
C654        C  0.66419822  0.90897669  0.07156526     1.07500
H655        H  0.64786752  0.74301452  0.04061780     0.39300
O656        O  0.62859861  0.76364099  0.35388685    -1.09000
O657        O  0.54575732  0.80080992  0.32718957    -0.65600
Ni658      Ni  0.57310112  0.76779338  0.04637687     1.26300
O659        O  0.68569671  0.80915806  0.07269765    -0.65900
O660        O  0.55446525  0.70582002  0.02946481    -0.78200
C661        C  0.51557230  0.79101558  0.11161867     0.85300
O662        O  0.51842700  0.77617635  0.07314834    -0.65300
Ni663      Ni  0.63016050  0.73896081  0.29680270     1.27400
Ni664      Ni  0.64165956  0.82994845  0.02632432     1.26100
H665        H  0.57147167  0.85458288  0.04736927     0.39800
N666        N  0.98793206  0.82588838  0.23398090    -0.02700
C667        C  0.52921633  0.82912420  0.25282900    -0.00100
C668        C  0.55536220  0.85729163  0.22537731    -0.23000
C669        C  0.52962667  0.87078014  0.18752032    -0.23200
C670        C  0.98932503  0.84879229  0.19274244    -0.00200
H671        H  0.59063350  0.86299051  0.23021755     0.13600
H672        H  0.54109788  0.88866420  0.15725902     0.13600
N673        N  0.72485098  0.76748227  0.13252975    -0.02700
C674        C  0.74122733  0.77095895  0.17493131    -0.00100
C675        C  0.76078077  0.72801749  0.19165979    -0.23000
C676        C  0.75986884  0.69878452  0.15703715    -0.23200
C677        C  0.74337717  0.72651265  0.11917362    -0.00200
H678        H  0.77812361  0.72051129  0.22384850     0.13600
H679        H  0.77930799  0.66575403  0.15768057     0.13600
N680        N  0.47128006  0.80095018  0.12653936    -0.02700
C681        C  0.93078199  0.78809698  0.10815690    -0.00100
C682        C  0.89702207  0.81456426  0.12406204    -0.23000
C683        C  0.91596357  0.84484000  0.15266893    -0.23200
C684        C  0.46075425  0.83487990  0.15507552    -0.00200
H685        H  0.86182454  0.81141115  0.11621640     0.13600
H686        H  0.89843658  0.87002961  0.17116289     0.13600
O687        O  0.94000606  0.22352148  0.16788602    -0.80100
O688        O  0.80572752  0.27559764  0.99939383    -0.64800
O689        O  0.90521002  0.24234741  0.07983940    -1.11400
C690        C  0.93621504  0.40444265  0.07581919     1.06800
O691        O  0.83065826  0.34333756  0.29924118    -0.78000
O692        O  0.91740390  0.32740899  0.31548580    -0.65600
Ni693      Ni  0.89468121  0.19684574  0.12927198     1.34900
C694        C  0.95423334  0.31430080  0.00180444     0.85500
O695        O  0.84712562  0.19407492  0.02781568    -0.78600
O696        O  0.84797613  0.16205913  0.09729941    -0.88800
C697        C  0.80382323  0.30849388  0.30113383     0.85100
O698        O  0.85316600  0.23943443  0.15118036    -0.67000
O699        O  0.92154347  0.40387776  0.03550145    -0.86300
C700        C  0.81682610  0.25340919  0.13104992     0.85900
C701        C  0.83509097  0.16200909  0.05624678     1.07500
H702        H  0.84309213  0.33656934  0.07075549     0.39300
O703        O  0.86616007  0.32403241  0.05379272    -1.09000
O704        O  0.95971129  0.31090114  0.04455735    -0.65600
Ni705      Ni  0.91722162  0.30729521  0.09241048     1.26300
O706        O  0.81170910  0.25548797  0.08825396    -0.65900
O707        O  0.92718111  0.37190983  0.10519032    -0.78200
C708        C  0.96720804  0.25828905  0.16557928     0.85300
O709        O  0.96613824  0.29021428  0.13321801    -0.65300
Ni710      Ni  0.87567719  0.36940848  0.00422228     1.27400
Ni711      Ni  0.85481583  0.25900314  0.04082641     1.26100
H712        H  0.92840436  0.22950917  0.06314088     0.39800
N713        N  0.76800084  0.30967090  0.26778028    -0.02700
C714        C  0.77402964  0.30886205  0.22335836    -0.00100
C715        C  0.74400273  0.34081881  0.19986820    -0.23000
C716        C  0.71746891  0.35917757  0.23025033    -0.23200
C717        C  0.73255522  0.33873249  0.27145913    -0.00200
H718        H  0.73736043  0.34465646  0.16414833     0.13600
H719        H  0.68795960  0.38132036  0.22261552     0.13600
O720        O  0.67425205  0.36783983  0.31169791    -0.80100
O721        O  0.55577974  0.27387098  0.12386152    -0.64800
O722        O  0.65069085  0.33467129  0.06449431    -1.11400
C723        C  0.68101211  0.17428361  0.02745672     1.06800
O724        O  0.59868840  0.21177260  0.15092814    -0.78000
O725        O  0.68126809  0.19663507  0.12668005    -0.65600
Ni726      Ni  0.64422692  0.39278982  0.02678777     1.34900
C727        C  0.71128467  0.22793688  0.12171742     0.85500
O728        O  0.58327603  0.36627650  0.11542579    -0.78600
O729        O  0.61348628  0.42406377  0.07051067    -0.88800
C730        C  0.56560429  0.23973402  0.15351341     0.85100
O731        O  0.58887317  0.37772176  0.33133837    -0.67000
O732        O  0.64983406  0.15916773  0.05130876    -0.86300
C733        C  0.55768407  0.34911534  0.00777365     0.85900
C734        C  0.58585382  0.41007721  0.09896427     1.07500
H735        H  0.59786332  0.24450668  0.04170408     0.39300
O736        O  0.61904443  0.24967566  0.06602915    -1.09000
O737        O  0.70929603  0.26228728  0.09106775    -0.65600
Ni738      Ni  0.66910017  0.27720527  0.03954533     1.26300
O739        O  0.55872792  0.32038801  0.04280966    -0.65900
O740        O  0.68717131  0.21880574  0.01613862    -0.78200
C741        C  0.70760311  0.33954585  0.31202649     0.85300
O742        O  0.71670644  0.30861101  0.01105570    -0.65300
Ni743      Ni  0.62380055  0.18853280  0.09931858     1.27400
Ni744      Ni  0.60129993  0.30679098  0.09252490     1.26100
H745        H  0.67217912  0.34168657  0.08799657     0.39800
N746        N  0.99156226  0.30991740  0.30763796    -0.02700
C747        C  0.51977100  0.34749759  0.30833721    -0.00100
C748        C  0.51907129  0.37315675  0.26732928    -0.23000
C749        C  0.49396624  0.34697264  0.23894518    -0.23200
C750        C  0.98322301  0.30455464  0.26317327    -0.00200
H751        H  0.54030599  0.40276511  0.25740255     0.13600
H752        H  0.49435850  0.35241376  0.20312106     0.13600
N753        N  0.77936311  0.26023707  0.15802783    -0.02700
C754        C  0.74858796  0.22541044  0.15541714    -0.00100
C755        C  0.74673873  0.19844882  0.19559236    -0.23000
C756        C  0.77286608  0.22157730  0.22557046    -0.23200
C757        C  0.78680125  0.26367241  0.20296462    -0.00200
H758        H  0.72324322  0.17049973  0.20400311     0.13600
H759        H  0.77109660  0.21515949  0.26125218     0.13600
N760        N  0.00271276  0.25849405  0.19922197    -0.02700
C761        C  0.99765337  0.25947323  0.24371481    -0.00100
C762        C  0.53146666  0.23176361  0.26652034    -0.23000
C763        C  0.55941163  0.21729364  0.23543251    -0.23200
C764        C  0.54130376  0.23544690  0.19452414    -0.00200
H765        H  0.53956177  0.22956849  0.30202700     0.13600
H766        H  0.59163309  0.20014994  0.24239466     0.13600
C767        C  0.74754093  0.00725692  0.04688666     0.03900
C768        C  0.70904940  0.98560297  0.06420444    -0.12300
C769        C  0.70654562  0.93524071  0.07114492     0.01400
C770        C  0.74296947  0.90722869  0.06174996    -0.10800
C771        C  0.77887307  0.92696421  0.03989861     0.03900
C772        C  0.78145589  0.97728296  0.03284555    -0.10200
H773        H  0.68086930  0.00735482  0.07146461     0.07100
H774        H  0.74095505  0.86846639  0.39970314     0.07000
H775        H  0.80940949  0.99295569  0.01632325     0.06900
C776        C  0.75152511  0.06079963  0.04086851     0.03900
C777        C  0.79274731  0.08313261  0.05023339    -0.12300
C778        C  0.79663469  0.13330730  0.04221856     0.01400
C779        C  0.76003933  0.16039700  0.02430511    -0.10800
C780        C  0.71785396  0.14056638  0.02134399     0.03900
C781        C  0.71380218  0.09031286  0.02808506    -0.10200
H782        H  0.82121254  0.06186079  0.06394227     0.09500
H783        H  0.76339001  0.19918872  0.01981284     0.07000
H784        H  0.68118953  0.07478897  0.02465813     0.06900
C785        C  0.50865931  0.56059853  0.36825464     0.03900
C786        C  0.96726529  0.58208084  0.35337423    -0.12300
C787        C  0.96436714  0.62530004  0.65965900     0.01400
C788        C  0.00275505  0.64549700  0.64417104    -0.10800
C789        C  0.54311816  0.63208127  0.66651903     0.03900
C790        C  0.54696071  0.58847795  0.36028869    -0.10200
H791        H  0.93681419  0.56868748  0.36642836     0.09500
H792        H  0.00036294  0.68002538  0.62461650     0.07000
H793        H  0.57870450  0.57904839  0.37706106     0.06900
C794        C  0.50974833  0.51253547  0.39542843     0.03900
C795        C  0.97135673  0.48388177  0.39536152    -0.12300
C796        C  0.97032801  0.43958570  0.42020601     0.01400
C797        C  0.00801511  0.42277055  0.44575261    -0.10800
C798        C  0.54890534  0.44423365  0.43826333     0.03900
C799        C  0.54909877  0.49137536  0.41665279    -0.10200
H800        H  0.94261712  0.49349477  0.37350017     0.09500
H801        H  0.00742943  0.38666327  0.46200284     0.07000
H802        H  0.58070672  0.50827377  0.41213007     0.06900
O803        O  0.91325140  0.83961600  0.58127011    -0.80100
O804        O  0.78032804  0.76924769  0.39418956    -0.64800
O805        O  0.87881212  0.81565982  0.66394888    -1.11400
C806        C  0.92679189  0.65823088  0.33010809     1.06800
O807        O  0.79970187  0.69271820  0.41286878    -0.78000
O808        O  0.88534436  0.72410200  0.42177745    -0.65600
Ni809      Ni  0.86812451  0.86516104  0.61732671     1.34900
C810        C  0.91836552  0.75014051  0.41113683     0.85500
O811        O  0.81726467  0.85341816  0.38032816    -0.78600
O812        O  0.82415255  0.89880964  0.65010617    -0.88800
C813        C  0.77460834  0.72913896  0.41585751     0.85100
O814        O  0.82297002  0.83015290  0.58639483    -0.67000
O815        O  0.90862708  0.65558137  0.36691160    -0.86300
C816        C  0.78799771  0.81356765  0.60314165     0.85900
C817        C  0.81004865  0.89222519  0.68939056     1.07500
H818        H  0.82492333  0.72064473  0.31747127     0.39300
O819        O  0.84559658  0.73032801  0.34064188    -1.09000
O820        O  0.93396845  0.75022172  0.37262956    -0.65600
Ni821      Ni  0.89905056  0.75457085  0.64885513     1.26300
O822        O  0.78622174  0.80239087  0.64470082    -0.65900
O823        O  0.91838190  0.69256053  0.63410163    -0.78200
C824        C  0.94863048  0.81448680  0.59124260     0.85300
O825        O  0.95041245  0.78150901  0.62285366    -0.65300
Ni826      Ni  0.85441184  0.67913049  0.38681625     1.27400
Ni827      Ni  0.82943391  0.79197422  0.36106709     1.26100
H828        H  0.89961579  0.82883813  0.35180028     0.39800
N829        N  0.74733151  0.81355229  0.57579439    -0.02700
C830        C  0.71494838  0.84344495  0.58584800    -0.00100
C831        C  0.70034678  0.87270912  0.54889047    -0.23000
C832        C  0.72236194  0.85676798  0.51431608    -0.23200
C833        C  0.74569304  0.81608843  0.53104217    -0.00200
H834        H  0.67186935  0.89690838  0.54585434     0.13600
H835        H  0.71625856  0.86797981  0.47985734     0.13600
O836        O  0.55127162  0.79941149  0.46905170    -0.80100
O837        O  0.69005703  0.83059575  0.65706111    -0.64800
O838        O  0.59214565  0.82997854  0.39382334    -1.11400
C839        C  0.57135966  0.67333591  0.67413169     1.06800
O840        O  0.65322812  0.79743445  0.60218861    -0.78000
O841        O  0.57292471  0.76082921  0.60682011    -0.65600
Ni842      Ni  0.60190036  0.84230956  0.45391508     1.34900
C843        C  0.54925221  0.79418510  0.61996888     0.85500
O844        O  0.65101811  0.89579585  0.36734662    -0.78600
O845        O  0.64917639  0.88984453  0.44119644    -0.88800
C846        C  0.68391042  0.82398747  0.61666491     0.85100
O847        O  0.64859621  0.79256867  0.46672983    -0.67000
O848        O  0.60653049  0.67886855  0.65320345    -0.86300
C849        C  0.68430324  0.79044643  0.44543823     0.85900
C850        C  0.66419829  0.90896662  0.40490073     1.07500
H851        H  0.64787076  0.74300391  0.37395099     0.39300
O852        O  0.62859750  0.76364221  0.68721921    -1.09000
O853        O  0.54575833  0.80081093  0.66052126    -0.65600
Ni854      Ni  0.57310274  0.76778131  0.37971322     1.26300
O855        O  0.68570097  0.80915213  0.40603244    -0.65900
O856        O  0.55446783  0.70580780  0.36279896    -0.78200
C857        C  0.51557306  0.79100675  0.44495459     0.85300
O858        O  0.51842917  0.77616444  0.40648576    -0.65300
Ni859      Ni  0.63016133  0.73895879  0.63013821     1.27400
Ni860      Ni  0.64166126  0.82993791  0.35966010     1.26100
H861        H  0.57147308  0.85457013  0.38070753     0.39800
N862        N  0.98793083  0.82588133  0.56731361    -0.02700
C863        C  0.52921495  0.82912046  0.58616139    -0.00100
C864        C  0.55535965  0.85728875  0.55870944    -0.23000
C865        C  0.52962455  0.87077172  0.52085097    -0.23200
C866        C  0.98932292  0.84878392  0.52607470    -0.00200
H867        H  0.59063199  0.86298313  0.56354658     0.13600
H868        H  0.54109828  0.88864600  0.49058646     0.13600
N869        N  0.72485472  0.76747558  0.46586392    -0.02700
C870        C  0.74123176  0.77095225  0.50826506    -0.00100
C871        C  0.76078887  0.72801159  0.52499186    -0.23000
C872        C  0.75987300  0.69877727  0.49036983    -0.23200
C873        C  0.74338149  0.72650693  0.45250701    -0.00200
H874        H  0.77813535  0.72050641  0.55717892     0.13600
H875        H  0.77930984  0.66574521  0.49101221     0.13600
N876        N  0.47127992  0.80094279  0.45987145    -0.02700
C877        C  0.93078303  0.78808724  0.44148833    -0.00100
C878        C  0.89702133  0.81455148  0.45739260    -0.23000
C879        C  0.91596031  0.84482611  0.48600192    -0.23200
C880        C  0.46075170  0.83486912  0.48840929    -0.00200
H881        H  0.86182535  0.81140679  0.44953378     0.13600
H882        H  0.89843290  0.87002299  0.50448777     0.13600
O883        O  0.94000373  0.22352135  0.50122177    -0.80100
O884        O  0.80572353  0.27559256  0.33273138    -0.64800
O885        O  0.90520710  0.24233966  0.41317463    -1.11400
C886        C  0.93621243  0.40443715  0.40915090     1.06800
O887        O  0.83065556  0.34334453  0.63257368    -0.78000
O888        O  0.91740438  0.32741682  0.64881924    -0.65600
Ni889      Ni  0.89468171  0.19683875  0.46260893     1.34900
C890        C  0.95422928  0.31429543  0.33513566     0.85500
O891        O  0.84712324  0.19406910  0.36115295    -0.78600
O892        O  0.84797827  0.16204937  0.43063645    -0.88800
C893        C  0.80382305  0.30849799  0.63446529     0.85100
O894        O  0.85316386  0.23942171  0.48451951    -0.67000
O895        O  0.92154148  0.40387000  0.36883318    -0.86300
C896        C  0.81682424  0.25339702  0.46438888     0.85900
C897        C  0.83509044  0.16200208  0.38958393     1.07500
H898        H  0.84309547  0.33656435  0.40409771     0.39300
O899        O  0.86615911  0.32402577  0.38712996    -1.09000
O900        O  0.95970616  0.31089578  0.37788850    -0.65600
Ni901      Ni  0.91722070  0.30728869  0.42574433     1.26300
O902        O  0.81170690  0.25547687  0.42159302    -0.65900
O903        O  0.92718043  0.37190422  0.43852302    -0.78200
C904        C  0.96720616  0.25828831  0.49891309     0.85300
O905        O  0.96613887  0.29020905  0.46654849    -0.65300
Ni906      Ni  0.87567393  0.36940089  0.33755646     1.27400
Ni907      Ni  0.85481254  0.25899644  0.37416404     1.26100
H908        H  0.92839767  0.22949925  0.39647258     0.39800
N909        N  0.76799913  0.30967461  0.60111401    -0.02700
C910        C  0.77402508  0.30886288  0.55669220    -0.00100
C911        C  0.74399334  0.34081565  0.53320291    -0.23000
C912        C  0.71746188  0.35917619  0.56358640    -0.23200
C913        C  0.73255249  0.33873447  0.60479457    -0.00200
H914        H  0.73734408  0.34464668  0.49748394     0.13600
H915        H  0.68794911  0.38131400  0.55595341     0.13600
O916        O  0.67424993  0.36784012  0.64503598    -0.80100
O917        O  0.55577345  0.27386011  0.45719220    -0.64800
O918        O  0.65068931  0.33466283  0.39783035    -1.11400
C919        C  0.68101140  0.17427426  0.36079459     1.06800
O920        O  0.59868863  0.21177100  0.48426637    -0.78000
O921        O  0.68126764  0.19662884  0.46001971    -0.65600
Ni922      Ni  0.64422616  0.39278170  0.36012448     1.34900
C923        C  0.71128292  0.22793171  0.45505632     0.85500
O924        O  0.58327331  0.36626842  0.44875904    -0.78600
O925        O  0.61348801  0.42405645  0.40384816    -0.88800
C926        C  0.56560008  0.23972729  0.48684761     0.85100
O927        O  0.58886935  0.37772601  0.66468065    -0.67000
O928        O  0.64983694  0.15915744  0.38465119    -0.86300
C929        C  0.55768303  0.34910821  0.34110802     0.85900
C930        C  0.58585269  0.41006965  0.43229881     1.07500
H931        H  0.59786259  0.24449633  0.37504042     0.39300
O932        O  0.61904352  0.24966687  0.39936580    -1.09000
O933        O  0.70929264  0.26228155  0.42440598    -0.65600
Ni934      Ni  0.66909806  0.27719647  0.37288176     1.26300
O935        O  0.55872698  0.32037939  0.37614270    -0.65900
O936        O  0.68716814  0.21879651  0.34947450    -0.78200
C937        C  0.70760181  0.33954712  0.64536288     0.85300
O938        O  0.71670365  0.30860102  0.34439103    -0.65300
Ni939      Ni  0.62380081  0.18852590  0.43265842     1.27400
Ni940      Ni  0.60129695  0.30678212  0.42585926     1.26100
H941        H  0.67217788  0.34167831  0.42133239     0.39800
N942        N  0.99156064  0.30991720  0.64097169    -0.02700
C943        C  0.51977176  0.34749502  0.64167199    -0.00100
C944        C  0.51907842  0.37314935  0.60066232    -0.23000
C945        C  0.49396689  0.34697153  0.57227829    -0.23200
C946        C  0.98322109  0.30455466  0.59650667    -0.00200
H947        H  0.54031820  0.40275291  0.59073590     0.13600
H948        H  0.49435361  0.35241587  0.53645371     0.13600
N949        N  0.77936250  0.26023259  0.49136572    -0.02700
C950        C  0.74858578  0.22540779  0.48875703    -0.00100
C951        C  0.74673806  0.19844809  0.52893293    -0.23000
C952        C  0.77286796  0.22157731  0.55890910    -0.23200
C953        C  0.78680153  0.26367228  0.53630160    -0.00200
H954        H  0.72324449  0.17049740  0.53734447     0.13600
H955        H  0.77110318  0.21515870  0.59459119     0.13600
N956        N  0.00271068  0.25849435  0.53255570    -0.02700
C957        C  0.99765021  0.25947264  0.57704831    -0.00100
C958        C  0.53146117  0.23175967  0.59985444    -0.23000
C959        C  0.55940663  0.21728903  0.56876733    -0.23200
C960        C  0.54130018  0.23544388  0.52785877    -0.00200
H961        H  0.53955476  0.22956238  0.63536137     0.13600
H962        H  0.59162661  0.20014182  0.57573003     0.13600
C963        C  0.74753996  0.00724789  0.38022086     0.03900
C964        C  0.70904832  0.98559318  0.39753766    -0.12300
C965        C  0.70654532  0.93523083  0.40447981     0.01400
C966        C  0.74297116  0.90721888  0.39509005    -0.10800
C967        C  0.77887327  0.92695479  0.37323657     0.03900
C968        C  0.78145501  0.97727355  0.36618115    -0.10200
H969        H  0.68086831  0.00734507  0.40479777     0.07100
H970        H  0.74095191  0.86846777  0.73303030     0.07000
H971        H  0.80940858  0.99294600  0.34965874     0.06900
C972        C  0.75152438  0.06079162  0.37420329     0.03900
C973        C  0.79274647  0.08312596  0.38356826    -0.12300
C974        C  0.79663363  0.13330103  0.37555533     0.01400
C975        C  0.76003818  0.16039073  0.35764245    -0.10800
C976        C  0.71785347  0.14055858  0.35467901     0.03900
C977        C  0.71380246  0.09030404  0.36141361    -0.10200
H978        H  0.82121275  0.06185476  0.39727480     0.09500
H979        H  0.76338806  0.19918273  0.35315082     0.07000
H980        H  0.68119134  0.07477808  0.35797626     0.06900
C981        C  0.50865949  0.56059737  0.70158985     0.03900
C982        C  0.96726590  0.58207818  0.68670948    -0.12300
C983        C  0.96436615  0.62530766  0.99299586     0.01400
C984        C  0.00275471  0.64550313  0.97750701    -0.10800
C985        C  0.54311680  0.63209007  0.99985883     0.03900
C986        C  0.54696055  0.58847706  0.69362154    -0.10200
H987        H  0.93681538  0.56868546  0.69976516     0.09500
H988        H  0.00036381  0.68002765  0.95794652     0.07000
H989        H  0.57870483  0.57904906  0.71039359     0.06900
C990        C  0.50974690  0.51253487  0.72876329     0.03900
C991        C  0.97135444  0.48388187  0.72869631    -0.12300
C992        C  0.97032529  0.43958695  0.75354177     0.01400
C993        C  0.00801346  0.42277058  0.77908591    -0.10800
C994        C  0.54890390  0.44423340  0.77159708     0.03900
C995        C  0.54909713  0.49137541  0.74998792    -0.10200
H996        H  0.94261480  0.49349396  0.70683423     0.09500
H997        H  0.00742757  0.38666350  0.79533602     0.07000
H998        H  0.58070448  0.50827607  0.74546800     0.06900
O999        O  0.91325349  0.83962254  0.91460178    -0.80100
O1000       O  0.78032749  0.76924549  0.72752731    -0.64800
O1001       O  0.87881056  0.81566742  0.99728193    -1.11400
C1002       C  0.92679290  0.65822688  0.66344233     1.06800
O1003       O  0.79969929  0.69271464  0.74620274    -0.78000
O1004       O  0.88534134  0.72409763  0.75511218    -0.65600
Ni1005     Ni  0.86812621  0.86516826  0.95065869     1.34900
C1006       C  0.91836088  0.75013848  0.74447069     0.85500
O1007       O  0.81726362  0.85341718  0.71366078    -0.78600
O1008       O  0.82415682  0.89881926  0.98343880    -0.88800
C1009       C  0.77460657  0.72913578  0.74919360     0.85100
O1010       O  0.82296866  0.83016157  0.91972760    -0.67000
O1011       O  0.90862491  0.65557463  0.70024419    -0.86300
C1012       C  0.78799654  0.81357572  0.93647492     0.85900
C1013       C  0.81004960  0.89223419  0.02272190     1.07500
H1014       H  0.82492265  0.72064308  0.65080480     0.39300
O1015       O  0.84559667  0.73032561  0.67397713    -1.09000
O1016       O  0.93396563  0.75021734  0.70596442    -0.65600
Ni1017     Ni  0.89904961  0.75457860  0.98219027     1.26300
O1018       O  0.78622060  0.80239764  0.97803365    -0.65900
O1019       O  0.91837739  0.69256584  0.96743572    -0.78200
C1020       C  0.94863170  0.81449202  0.92457437     0.85300
O1021       O  0.95041320  0.78151708  0.95618834    -0.65300
Ni1022     Ni  0.85440967  0.67912627  0.72014950     1.27400
Ni1023     Ni  0.82943366  0.79197173  0.69440252     1.26100
H1024       H  0.89961501  0.82883562  0.68513432     0.39800
N1025       N  0.74733077  0.81355758  0.90912843    -0.02700
C1026       C  0.71494795  0.84345112  0.91918169    -0.00100
C1027       C  0.70034592  0.87271205  0.88222342    -0.23000
C1028       C  0.72235920  0.85676734  0.84764946    -0.23200
C1029       C  0.74569307  0.81609090  0.86437627    -0.00200
H1030       H  0.67186541  0.89690665  0.87918614     0.13600
H1031       H  0.71625161  0.86797343  0.81319059     0.13600
O1032       O  0.55126978  0.79941499  0.80238124    -0.80100
O1033       O  0.69005389  0.83060601  0.99039399    -0.64800
O1034       O  0.59214705  0.82998044  0.72715455    -1.11400
C1035       C  0.57136041  0.67334378  0.00746879     1.06800
O1036       O  0.65322765  0.79744077  0.93552177    -0.78000
O1037       O  0.57292314  0.76083488  0.94015136    -0.65600
Ni1038     Ni  0.60190051  0.84231184  0.78724616     1.34900
C1039       C  0.54925257  0.79419285  0.95329923     0.85500
O1040       O  0.65102105  0.89579678  0.70068048    -0.78600
O1041       O  0.64917782  0.88984584  0.77452989    -0.88800
C1042       C  0.68390836  0.82399611  0.94999806     0.85100
O1043       O  0.64859621  0.79257077  0.80006371    -0.67000
O1044       O  0.60652974  0.67887468  0.98653792    -0.86300
C1045       C  0.68430301  0.79044439  0.77877222     0.85900
C1046       C  0.66420037  0.90896796  0.73823465     1.07500
H1047       H  0.64786768  0.74300549  0.70728296     0.39300
O1048       O  0.62859652  0.76365139  0.02055223    -1.09000
O1049       O  0.54575955  0.80082063  0.99385128    -0.65600
Ni1050     Ni  0.57310158  0.76778303  0.71304511     1.26300
O1051       O  0.68570126  0.80914644  0.73936489    -0.65900
O1052       O  0.55446426  0.70580904  0.69613160    -0.78200
C1053       C  0.51557091  0.79100760  0.77828536     0.85300
O1054       O  0.51842704  0.77616585  0.73981655    -0.65300
Ni1055     Ni  0.63016004  0.73896539  0.96347175     1.27400
Ni1056     Ni  0.64166269  0.82993866  0.69299254     1.26100
H1057       H  0.57147521  0.85457478  0.71403686     0.39800
N1058       N  0.98793218  0.82588521  0.90064473    -0.02700
C1059       C  0.52921593  0.82912778  0.91949197    -0.00100
C1060       C  0.55536005  0.85729560  0.89203854    -0.23000
C1061       C  0.52962420  0.87077420  0.85417946    -0.23200
C1062       C  0.98932376  0.84878419  0.85940476    -0.00200
H1063       H  0.59063260  0.86299030  0.89687386     0.13600
H1064       H  0.54109668  0.88864611  0.82391344     0.13600
N1065       N  0.72485351  0.76747289  0.79920037    -0.02700
C1066       C  0.74123243  0.77095341  0.84160070    -0.00100
C1067       C  0.76079204  0.72801485  0.85832877    -0.23000
C1068       C  0.75987667  0.69877775  0.82370883    -0.23200
C1069       C  0.74338148  0.72650389  0.78584508    -0.00200
H1070       H  0.77814464  0.72051545  0.89051339     0.13600
H1071       H  0.77932116  0.66575083  0.82435202     0.13600
N1072       N  0.47127773  0.80093888  0.79320506    -0.02700
C1073       C  0.93077967  0.78808588  0.77482167    -0.00100
C1074       C  0.89701940  0.81455223  0.79072663    -0.23000
C1075       C  0.91596087  0.84482582  0.81933539    -0.23200
C1076       C  0.46075130  0.83486644  0.82174201    -0.00200
H1077       H  0.86182295  0.81141007  0.78286912     0.13600
H1078       H  0.89843603  0.87002514  0.83782071     0.13600
O1079       O  0.94000946  0.22351788  0.83455142    -0.80100
O1080       O  0.80572611  0.27559425  0.66606083    -0.64800
O1081       O  0.90520991  0.24234353  0.74650478    -1.11400
C1082       C  0.93621068  0.40443864  0.74248503     1.06800
O1083       O  0.83066192  0.34334465  0.96590649    -0.78000
O1084       O  0.91740811  0.32741540  0.98215548    -0.65600
Ni1085     Ni  0.89468564  0.19684048  0.79593812     1.34900
C1086       C  0.95422870  0.31429896  0.66846940     0.85500
O1087       O  0.84712780  0.19407169  0.69448404    -0.78600
O1088       O  0.84798017  0.16205404  0.76396754    -0.88800
C1089       C  0.80382714  0.30850040  0.96779786     0.85100
O1090       O  0.85317013  0.23942546  0.81784958    -0.67000
O1091       O  0.92154065  0.40387327  0.70216701    -0.86300
C1092       C  0.81683008  0.25340142  0.79771985     0.85900
C1093       C  0.83509397  0.16200534  0.72291504     1.07500
H1094       H  0.84309163  0.33656483  0.73742472     0.39300
O1095       O  0.86615839  0.32402849  0.72045975    -1.09000
O1096       O  0.95970644  0.31089911  0.71122207    -0.65600
Ni1097     Ni  0.91722012  0.30729108  0.75907629     1.26300
O1098       O  0.81171118  0.25548134  0.75492402    -0.65900
O1099       O  0.92717749  0.37190537  0.77185607    -0.78200
C1100       C  0.96720860  0.25828771  0.83224585     0.85300
O1101       O  0.96613896  0.29021089  0.79988252    -0.65300
Ni1102     Ni  0.87567277  0.36940667  0.67088906     1.27400
Ni1103     Ni  0.85481517  0.25899952  0.70749379     1.26100
H1104       H  0.92840199  0.22950603  0.72980407     0.39800
N1105       N  0.76800521  0.30967781  0.93444415    -0.02700
C1106       C  0.77403369  0.30886593  0.89002275    -0.00100
C1107       C  0.74400189  0.34081626  0.86653114    -0.23000
C1108       C  0.71746601  0.35917354  0.89691213    -0.23200
C1109       C  0.73255641  0.33873558  0.93812178    -0.00200
H1110       H  0.73736087  0.34465326  0.83081116     0.13600
H1111       H  0.68795574  0.38131475  0.88927713     0.13600
O1112       O  0.67425485  0.36784850  0.97836058    -0.80100
O1113       O  0.55577461  0.27385451  0.79052767    -0.64800
O1114       O  0.65068856  0.33466044  0.73116841    -1.11400
C1115       C  0.68101518  0.17427259  0.69413220     1.06800
O1116       O  0.59869294  0.21176901  0.81760496    -0.78000
O1117       O  0.68127256  0.19663124  0.79335844    -0.65600
Ni1118     Ni  0.64422609  0.39278151  0.69346452     1.34900
C1119       C  0.71128811  0.22793348  0.78839307     0.85500
O1120       O  0.58326808  0.36626622  0.78209071    -0.78600
O1121       O  0.61349288  0.42405741  0.73719085    -0.88800
C1122       C  0.56560373  0.23972484  0.82018563     0.85100
O1123       O  0.58887450  0.37772772  0.99800247    -0.67000
O1124       O  0.64984270  0.15915502  0.71799106    -0.86300
C1125       C  0.55768189  0.34910643  0.67444566     0.85900
C1126       C  0.58585260  0.41006932  0.76563594     1.07500
H1127       H  0.59786461  0.24448981  0.70837757     0.39300
O1128       O  0.61904623  0.24966288  0.73270380    -1.09000
O1129       O  0.70929742  0.26228174  0.75774112    -0.65600
Ni1130     Ni  0.66909929  0.27719443  0.70621859     1.26300
O1131       O  0.55872787  0.32037262  0.70947717    -0.65900
O1132       O  0.68717012  0.21879489  0.68281080    -0.78200
C1133       C  0.70760576  0.33955372  0.97868973     0.85300
O1134       O  0.71670296  0.30860035  0.67772556    -0.65300
Ni1135     Ni  0.62380596  0.18852345  0.76599764     1.27400
Ni1136     Ni  0.60129638  0.30677852  0.75919512     1.26100
H1137       H  0.67217457  0.34167477  0.75467208     0.39800
N1138       N  0.99156417  0.30992404  0.97430407    -0.02700
C1139       C  0.51977276  0.34750404  0.97500198    -0.00100
C1140       C  0.51907619  0.37315842  0.93399140    -0.23000
C1141       C  0.49396629  0.34697673  0.90560900    -0.23200
C1142       C  0.98322277  0.30456018  0.92983942    -0.00200
H1143       H  0.54031281  0.40276442  0.92406304     0.13600
H1144       H  0.49435138  0.35241917  0.86978422     0.13600
N1145       N  0.77936903  0.26023504  0.82469776    -0.02700
C1146       C  0.74859385  0.22540856  0.82209094    -0.00100
C1147       C  0.74674988  0.19844830  0.86226745    -0.23000
C1148       C  0.77287831  0.22158084  0.89224235    -0.23200
C1149       C  0.78680968  0.26367553  0.86963314    -0.00200
H1150       H  0.72325747  0.17049721  0.87068140     0.13600
H1151       H  0.77111271  0.21516496  0.92792459     0.13600
N1152       N  0.00271216  0.25849422  0.86589031    -0.02700
C1153       C  0.99765118  0.25947689  0.91038297    -0.00100
C1154       C  0.53146227  0.23176666  0.93319171    -0.23000
C1155       C  0.55940622  0.21728919  0.90210622    -0.23200
C1156       C  0.54130098  0.23544077  0.86119580    -0.00200
H1157       H  0.53955724  0.22957563  0.96869845     0.13600
H1158       H  0.59162589  0.20014202  0.90907107     0.13600
C1159       C  0.74754331  0.00724959  0.71355499     0.03900
C1160       C  0.70905043  0.98559599  0.73087110    -0.12300
C1161       C  0.70654681  0.93523329  0.73781366     0.01400
C1162       C  0.74297042  0.90722038  0.72842039    -0.10800
C1163       C  0.77887354  0.92695525  0.70656897     0.03900
C1164       C  0.78145917  0.97727420  0.69951870    -0.10200
H1165       H  0.68087156  0.00734824  0.73813410     0.07100
H1166       H  0.74095058  0.86847615  0.06635869     0.07000
H1167       H  0.80941631  0.99294592  0.68300211     0.06900
C1168       C  0.75152971  0.06079263  0.70753664     0.03900
C1169       C  0.79275344  0.08312702  0.71689668    -0.12300
C1170       C  0.79663836  0.13330245  0.70888609     0.01400
C1171       C  0.76004074  0.16039105  0.69097780    -0.10800
C1172       C  0.71785656  0.14055774  0.68801294     0.03900
C1173       C  0.71380651  0.09030401  0.69475074    -0.10200
H1174       H  0.82122139  0.06185657  0.73060058     0.09500
H1175       H  0.76338875  0.19918360  0.68649388     0.07000
H1176       H  0.68119472  0.07477820  0.69132054     0.06900
loop_ 
_geom_bond_atom_site_label_1 
_geom_bond_atom_site_label_2 
_geom_bond_distance 
_geom_bond_site_symmetry_2 
_ccdc_geom_bond_type 
C1            C6   1.420       .  A
C1          C590   1.415   1_455  A
C1           C10   1.512       .  S
C2          C589   1.415       .  A
C2          C395   1.399   1_554  A
C2            H7   1.080       .  S
C3            C4   1.383       .  A
C3          C198   1.399       .  A
C3          C218   1.466       .  S
C4          C593   1.393       .  A
C4            H8   1.087       .  S
C5          C592   1.393       .  A
C5          C202   1.409       .  A
C5           C55   1.459       .  S
C6          C397   1.409   1_554  A
C6            H9   1.079       .  S
C10          C15   1.419       .  A
C10         C599   1.413   1_455  A
C11          C12   1.393       .  A
C11         C598   1.413       .  A
C11          H16   1.079       .  S
C12          C13   1.395       .  A
C12         C102   1.468       .  S
C13         C602   1.399       .  A
C13          H17   1.083       .  S
C14          C15   1.418       .  A
C14         C601   1.399       .  A
C14         C146   1.486       .  S
C15          H18   1.079       .  S
O19         Ni25   1.954       .  S
O19          C40   1.280       .  A
O20         Ni43   1.921       .  S
O20          C29   1.267       .  A
O21         Ni25   1.903       .  S
O21         Ni37   1.895       .  S
O21        Ni239   1.894       .  S
O21         H240   0.965       .  S
C22         C395   1.466       .  S
C22          O31   1.265   1_556  A
C22         O431   1.265       .  A
O23         Ni42   1.917       .  S
O23          C29   1.270       .  A
O24         Ni42   1.912       .  S
O24          C26   1.279       .  A
Ni25         O28   1.971       .  S
Ni25         O30   1.922       .  S
C26          C93   1.485       .  S
C26          O36   1.279       .  A
O27         Ni43   1.884       .  S
O27         C425   1.266       .  A
O28          C33   1.284       .  A
C29          C89   1.493       .  S
O30          C32   1.272       .  A
O31         Ni42   1.904       .  S
C32          O38   1.274       .  A
C32          N45   1.441       .  S
C33         C379   1.484       .  S
C33         O223   1.266       .  A
H34          O35   0.966   1_556  S
O35         Ni43   1.931       .  S
O35         Ni42   1.920       .  S
O35        Ni429   1.928   1_554  S
O36        Ni429   1.964   1_554  S
Ni37         O41   1.912       .  S
Ni37         O39   1.906       .  S
Ni37        O232   1.964       .  S
Ni37        O231   1.928       .  S
O38        Ni239   1.935       .  S
O39         C218   1.265       .  A
C40          O41   1.270       .  A
C40          N78   1.450       .  S
Ni43        O430   1.935   1_554  S
Ni43        O413   1.894   1_554  S
H44         O413   0.966   1_554  S
N45          C49   1.346       .  A
N45          C46   1.340       .  A
C46          C47   1.378       .  A
C46          C62   1.439       .  S
C47          C48   1.368       .  A
C47          H50   1.082       .  S
C48          C49   1.374       .  A
C48          H51   1.068       .  S
C49          C86   1.479       .  S
O52         Ni58   2.000       .  S
O52          C73   1.299       .  A
O53        Ni272   1.869       .  S
O53          C62   1.251       .  A
O54         Ni58   1.879       .  S
O54         Ni76   1.865       .  S
O54         Ni70   1.897       .  S
O54          H77   0.968       .  S
C55          O64   1.272       .  A
C55         O268   1.279       .  A
O56         Ni75   1.928       .  S
O56          C62   1.269       .  A
O57         Ni75   1.906       .  S
O57          C59   1.266       .  A
Ni58         O61   1.988       .  S
Ni58         O63   1.967       .  S
C59          C79   1.455       .  S
C59          O69   1.262       .  A
O60         Ni76   1.883       .  S
O60          C66   1.262       .  A
O61          C66   1.289       .  A
O63          C65   1.290       .  A
O64         Ni75   1.919       .  S
C65          O71   1.265       .  A
C65          N85   1.459       .  S
C66         C181   1.479       .  S
H67         O460   0.967       .  S
O68         Ni75   1.905       .  S
O68        Ni272   1.906       .  S
O68        Ni266   1.895       .  S
O68         H263   0.967       .  S
O69        Ni266   1.912       .  S
Ni70         O74   1.900       .  S
Ni70         O72   1.913       .  S
Ni70        O461   1.912   1_554  S
Ni70        O460   1.895       .  S
O71         Ni76   1.927       .  S
O72         C447   1.279       .  A
C73          O74   1.269       .  A
C73          N92   1.467   1_455  S
Ni76        O445   1.869   1_554  S
Ni76        O460   1.906       .  S
N78          C82   1.357       .  A
N78         C667   1.348       .  A
C79          C80   1.382       .  A
C79         N666   1.348   1_455  A
C80          C81   1.371       .  A
C80          H83   1.082       .  S
C81         C670   1.379   1_455  A
C81          H84   1.083       .  S
C82         C669   1.379       .  A
C82         C684   1.466       .  S
N85          C89   1.362       .  A
N85          C86   1.357       .  A
C86          C87   1.374       .  A
C87          C88   1.371       .  A
C87          H90   1.082       .  S
C88          C89   1.394       .  A
C88          H91   1.083       .  S
N92          C96   1.371       .  A
N92         C681   1.376       .  A
C93          C94   1.381       .  A
C93         N680   1.376       .  A
C94          C95   1.358       .  A
C94          H97   1.082       .  S
C95         C684   1.375       .  A
C95          H98   1.081       .  S
C96         C683   1.375       .  A
C96         C670   1.466       .  S
O99        Ni105   1.937       .  S
O99         C120   1.274       .  A
O100       Ni123   1.914   1_556  S
O100        C501   1.268       .  A
O101       Ni105   1.924       .  S
O101       Ni123   1.902       .  S
O101       Ni117   1.905       .  S
O101        H124   0.967       .  S
C102        O119   1.260       .  A
C102        O111   1.273       .  A
O103       Ni318   1.918       .  S
O103        C109   1.268       .  A
O104       Ni318   1.892       .  S
O104        C302   1.268       .  A
Ni105       O108   1.967       .  S
Ni105       O110   1.896       .  S
C106        O116   1.288       .  A
C106        O496   1.268   1_554  A
C106        N550   1.448   1_554  S
O107       Ni123   1.888       .  S
O107        C113   1.260       .  A
O108        C113   1.278       .  A
C109        O296   1.268       .  A
C109        N125   1.434       .  S
O110        C112   1.267       .  A
O111       Ni122   1.934       .  S
C112        O118   1.289       .  A
C112        N165   1.451       .  S
C113        C190   1.475       .  S
H114        O115   0.966       .  S
O115       Ni123   1.907       .  S
O115       Ni117   1.912       .  S
O115       Ni122   1.918       .  S
O116       Ni117   1.984       .  S
Ni117       O121   1.902       .  S
Ni117       O119   1.887       .  S
O118       Ni123   1.987       .  S
C120        O121   1.267       .  A
C120        N172   1.435       .  S
Ni122       O495   1.918   1_554  S
Ni122       O496   1.892   1_554  S
N125        C129   1.350       .  A
N125        C126   1.366       .  A
C126        C127   1.389       .  A
C126        C169   1.496       .  S
C127        C128   1.375       .  A
C127        H130   1.083       .  S
C128        C129   1.379       .  A
C128        H131   1.082       .  S
C129        C153   1.476       .  S
O132       Ni334   1.932       .  S
O132        C153   1.271       .  A
O133       Ni156   1.914       .  S
O133        C142   1.274       .  A
O134       Ni138   1.905       .  S
O134       Ni156   1.900       .  S
O134       Ni150   1.908       .  S
O134        H157   0.966       .  S
C135        C192   1.477       .  S
C135        O152   1.276       .  A
C135        O144   1.273       .  A
O136       Ni155   1.923       .  S
O136        C142   1.270       .  A
O137       Ni155   1.902       .  S
O137        C139   1.269       .  A
Ni138       O141   1.913       .  S
Ni138       O524   1.932   1_554  S
Ni138       O535   1.905   1_554  S
C139        C166   1.472       .  S
C139        O149   1.276       .  A
O140       Ni156   1.925       .  S
O140        C146   1.284       .  A
O141        C146   1.274       .  A
C142        C176   1.473       .  S
O143       Ni334   1.905       .  S
O143        C341   1.271       .  A
O144       Ni155   1.919       .  S
C145        C551   1.473   1_554  S
C145        O151   1.274       .  A
C145        O535   1.271   1_554  A
H147        O148   0.966       .  S
O148       Ni156   1.916       .  S
O148       Ni150   1.891       .  S
O148       Ni155   1.907       .  S
O149       Ni150   1.935       .  S
Ni150       O154   1.903       .  S
Ni150       O152   1.905       .  S
O151       Ni156   1.932       .  S
C153        O350   1.268       .  A
O154        C545   1.268   1_554  A
N158        C302   1.448       .  S
N158        C162   1.371       .  A
N158        C747   1.354       .  A
C159        C160   1.380       .  A
C159        C341   1.473       .  S
C159        N746   1.354   1_455  A
C160        C161   1.367   1_455  A
C160        H163   1.083       .  S
C161        C750   1.390       .  A
C161        H164   1.081       .  S
C162        C749   1.390       .  A
C162        C173   1.495       .  S
N165        C169   1.373       .  A
N165        C166   1.351       .  A
C166        C167   1.380       .  A
C167        C168   1.368       .  A
C167        H170   1.082       .  S
C168        C169   1.390       .  A
C168        H171   1.083       .  S
N172        C173   1.363       .  A
N172        C764   1.345       .  A
C173        C762   1.391       .  A
C174        C175   1.377       .  A
C174        C761   1.391   1_455  A
C174        H177   1.083       .  S
C175        C176   1.379       .  A
C175        H178   1.082       .  S
C176        N760   1.345       .  A
C179        C180   1.422   1_545  A
C179        C184   1.418   1_545  A
C179        C188   1.491       .  S
C180        C181   1.402       .  A
C180        H185   1.082   1_565  S
C181        C182   1.397       .  A
C182        C183   1.396       .  A
C182        H578   1.078       .  S
C183        C184   1.401       .  A
C183        C425   1.484       .  S
C184        H187   1.083       .  S
H186        C378   1.078       .  S
C188        C189   1.420       .  A
C188        C193   1.416       .  A
C189        C190   1.404       .  A
C189        H194   1.083       .  S
C190        C191   1.391       .  A
C191        C192   1.394       .  A
C191        H195   1.082       .  S
C192        C193   1.403       .  A
C193        H196   1.082       .  S
C197        C786   1.415   1_455  A
C197        C202   1.420       .  A
C197        C206   1.512       .  S
C198        C785   1.415       .  A
C198        H203   1.080       .  S
C199        C394   1.399       .  A
C199        C200   1.383       .  A
C199        C414   1.466       .  S
C200        C789   1.393       .  A
C200        H204   1.087       .  S
C201        C788   1.393       .  A
C201        C398   1.409       .  A
C201        C251   1.459       .  S
C202        H205   1.079       .  S
C206        C795   1.413   1_455  A
C206        C211   1.419       .  A
C207        C794   1.413       .  A
C207        C208   1.393       .  A
C207        H212   1.079       .  S
C208        C209   1.395       .  A
C208        C298   1.468       .  S
C209        C798   1.399       .  A
C209        H213   1.083       .  S
C210        C797   1.399       .  A
C210        C211   1.418       .  A
C210        C342   1.486       .  S
C211        H214   1.079       .  S
O215       Ni221   1.954       .  S
O215        C236   1.280       .  A
O216       Ni239   1.921       .  S
O216        C225   1.267       .  A
O217       Ni221   1.903       .  S
O217       Ni435   1.894       .  S
O217       Ni233   1.895       .  S
O217        H436   0.965       .  S
C218        O227   1.265       .  A
O219       Ni238   1.917       .  S
O219        C225   1.270       .  A
O220       Ni238   1.912       .  S
O220        C222   1.279       .  A
Ni221       O224   1.971       .  S
Ni221       O226   1.922       .  S
C222        C289   1.485       .  S
C222        O232   1.279       .  A
O223       Ni239   1.884       .  S
O224        C229   1.284       .  A
C225        C285   1.493       .  S
O226        C228   1.272       .  A
O227       Ni238   1.904       .  S
C228        O234   1.274       .  A
C228        N241   1.441       .  S
C229        C575   1.484       .  S
C229        O419   1.266       .  A
H230        O231   0.966       .  S
O231       Ni239   1.931       .  S
O231       Ni238   1.920       .  S
Ni233       O428   1.964       .  S
Ni233       O237   1.912       .  S
Ni233       O235   1.906       .  S
Ni233       O427   1.928       .  S
O234       Ni435   1.935       .  S
O235        C414   1.265       .  A
C236        O237   1.270       .  A
C236        N274   1.450       .  S
N241        C245   1.346       .  A
N241        C242   1.340       .  A
C242        C243   1.378       .  A
C242        C258   1.439       .  S
C243        C244   1.368       .  A
C243        H246   1.082       .  S
C244        C245   1.374       .  A
C244        H247   1.068       .  S
C245        C282   1.479       .  S
O248       Ni254   2.000       .  S
O248        C269   1.299       .  A
O249       Ni468   1.869       .  S
O249        C258   1.251       .  A
O250       Ni254   1.879       .  S
O250       Ni272   1.865       .  S
O250       Ni266   1.897       .  S
O250        H273   0.968       .  S
C251        O464   1.279       .  A
C251        O260   1.272       .  A
O252       Ni271   1.928       .  S
O252        C258   1.269       .  A
O253       Ni271   1.906       .  S
O253        C255   1.266       .  A
Ni254       O257   1.988       .  S
Ni254       O259   1.967       .  S
C255        C275   1.455       .  S
C255        O265   1.262       .  A
O256       Ni272   1.883       .  S
O256        C262   1.262       .  A
O257        C262   1.289       .  A
O259        C261   1.290       .  A
O260       Ni271   1.919       .  S
C261        O267   1.265       .  A
C261        N281   1.459       .  S
C262        C377   1.479       .  S
O264       Ni468   1.906       .  S
O264       Ni462   1.895       .  S
O264       Ni271   1.905       .  S
O264        H459   0.967       .  S
O265       Ni462   1.912       .  S
Ni266       O270   1.900       .  S
Ni266       O268   1.913       .  S
O267       Ni272   1.927       .  S
C269        O270   1.269       .  A
C269        N288   1.467   1_455  S
N274        C278   1.357       .  A
N274        C863   1.348       .  A
C275        C276   1.382       .  A
C275        N862   1.348   1_455  A
C276        C277   1.371       .  A
C276        H279   1.082       .  S
C277        C866   1.379   1_455  A
C277        H280   1.083       .  S
C278        C865   1.379       .  A
C278        C880   1.466       .  S
N281        C285   1.362       .  A
N281        C282   1.357       .  A
C282        C283   1.374       .  A
C283        C284   1.371       .  A
C283        H286   1.082       .  S
C284        C285   1.394       .  A
C284        H287   1.083       .  S
N288        C292   1.371       .  A
N288        C877   1.376       .  A
C289        C290   1.381       .  A
C289        N876   1.376       .  A
C290        C291   1.358       .  A
C290        H293   1.082       .  S
C291        C880   1.375       .  A
C291        H294   1.081       .  S
C292        C879   1.375       .  A
C292        C866   1.466       .  S
O295       Ni301   1.937       .  S
O295        C316   1.274       .  A
O296       Ni319   1.914       .  S
O297       Ni301   1.924       .  S
O297       Ni319   1.902       .  S
O297       Ni313   1.905       .  S
O297        H320   0.967       .  S
C298        O315   1.260       .  A
C298        O307   1.273       .  A
O299       Ni514   1.918       .  S
O299        C305   1.268       .  A
O300       Ni514   1.892       .  S
O300        C498   1.268       .  A
Ni301       O304   1.967       .  S
Ni301       O306   1.896       .  S
C302        O312   1.288       .  A
O303       Ni319   1.888       .  S
O303        C309   1.260       .  A
O304        C309   1.278       .  A
C305        O492   1.268       .  A
C305        N321   1.434       .  S
O306        C308   1.267       .  A
O307       Ni318   1.934       .  S
C308        O314   1.289       .  A
C308        N361   1.451       .  S
C309        C386   1.475       .  S
H310        O311   0.966       .  S
O311       Ni319   1.907       .  S
O311       Ni313   1.912       .  S
O311       Ni318   1.918       .  S
O312       Ni313   1.984       .  S
Ni313       O317   1.902       .  S
Ni313       O315   1.887       .  S
O314       Ni319   1.987       .  S
C316        O317   1.267       .  A
C316        N368   1.435       .  S
N321        C325   1.350       .  A
N321        C322   1.366       .  A
C322        C323   1.389       .  A
C322        C365   1.496       .  S
C323        C324   1.375       .  A
C323        H326   1.083       .  S
C324        C325   1.379       .  A
C324        H327   1.082       .  S
C325        C349   1.476       .  S
O328       Ni530   1.932       .  S
O328        C349   1.271       .  A
O329       Ni352   1.914       .  S
O329        C338   1.274       .  A
O330       Ni334   1.905       .  S
O330       Ni352   1.900       .  S
O330       Ni346   1.908       .  S
O330        H353   0.966       .  S
C331        C388   1.477       .  S
C331        O348   1.276       .  A
C331        O340   1.273       .  A
O332       Ni351   1.923       .  S
O332        C338   1.270       .  A
O333       Ni351   1.902       .  S
O333        C335   1.269       .  A
Ni334       O337   1.913       .  S
C335        C362   1.472       .  S
C335        O345   1.276       .  A
O336       Ni352   1.925       .  S
O336        C342   1.284       .  A
O337        C342   1.274       .  A
C338        C372   1.473       .  S
O339       Ni530   1.905       .  S
O339        C537   1.271       .  A
O340       Ni351   1.919       .  S
C341        O347   1.274       .  A
H343        O344   0.966       .  S
O344       Ni352   1.916       .  S
O344       Ni346   1.891       .  S
O344       Ni351   1.907       .  S
O345       Ni346   1.935       .  S
Ni346       O350   1.903       .  S
Ni346       O348   1.906       .  S
O347       Ni352   1.932       .  S
C349        O546   1.268       .  A
N354        C498   1.448       .  S
N354        C358   1.371       .  A
N354        C943   1.354       .  A
C355        C356   1.380       .  A
C355        C537   1.473       .  S
C355        N942   1.354   1_455  A
C356        C357   1.367   1_455  A
C356        H359   1.083       .  S
C357        C946   1.390       .  A
C357        H360   1.081       .  S
C358        C945   1.390       .  A
C358        C369   1.495       .  S
N361        C365   1.373       .  A
N361        C362   1.351       .  A
C362        C363   1.380       .  A
C363        C364   1.368       .  A
C363        H366   1.082       .  S
C364        C365   1.390       .  A
C364        H367   1.083       .  S
N368        C960   1.345       .  A
N368        C369   1.363       .  A
C369        C958   1.391       .  A
C370        C957   1.391   1_455  A
C370        C371   1.377       .  A
C370        H373   1.083       .  S
C371        C372   1.379       .  A
C371        H374   1.082       .  S
C372        N956   1.345       .  A
C375        C376   1.422   1_545  A
C375        C380   1.418   1_545  A
C375        C384   1.491       .  S
C376        C377   1.402       .  A
C376        H381   1.082   1_565  S
C377        C378   1.397       .  A
C378        C379   1.396       .  A
C379        C380   1.401       .  A
C380        H383   1.083       .  S
H382        C574   1.078       .  S
C384        C385   1.420       .  A
C384        C389   1.416       .  A
C385        C386   1.404       .  A
C385        H390   1.083       .  S
C386        C387   1.391       .  A
C387        C388   1.394       .  A
C387        H391   1.082       .  S
C388        C389   1.403       .  A
C389        H392   1.082       .  S
C393        C982   1.415   1_455  A
C393        C398   1.420       .  A
C393        C402   1.512       .  S
C394        C981   1.415       .  A
C394        H399   1.080       .  S
C395        C396   1.383       .  A
C396        C985   1.393       .  A
C396        H400   1.087       .  S
C397        C984   1.393       .  A
C397        C447   1.459   1_556  S
C398        H401   1.079       .  S
C402        C991   1.413   1_455  A
C402        C407   1.419       .  A
C403        C990   1.413       .  A
C403        C404   1.393       .  A
C403        H408   1.079       .  S
C404        C405   1.395       .  A
C404        C494   1.468       .  S
C405        C994   1.399       .  A
C405        H409   1.083       .  S
C406        C993   1.399       .  A
C406        C407   1.418       .  A
C406        C538   1.486       .  S
C407        H410   1.079       .  S
O411       Ni417   1.954       .  S
O411        C432   1.280       .  A
O412       Ni435   1.921       .  S
O412        C421   1.267       .  A
O413       Ni417   1.903       .  S
O413       Ni429   1.895       .  S
C414        O423   1.265       .  A
O415       Ni434   1.917       .  S
O415        C421   1.270       .  A
O416       Ni434   1.912       .  S
O416        C418   1.279       .  A
Ni417       O420   1.971       .  S
Ni417       O422   1.922       .  S
C418        C485   1.485       .  S
C418        O428   1.279       .  A
O419       Ni435   1.884       .  S
O420        C425   1.284   1_556  A
C421        C481   1.493       .  S
O422        C424   1.272       .  A
O423       Ni434   1.904       .  S
C424        O430   1.274       .  A
C424        N437   1.441       .  S
H426        O427   0.966       .  S
O427       Ni435   1.931       .  S
O427       Ni434   1.920       .  S
Ni429       O433   1.912       .  S
Ni429       O431   1.906       .  S
C432        O433   1.270       .  A
C432        N470   1.450       .  S
N437        C441   1.346       .  A
N437        C438   1.340       .  A
C438        C439   1.378       .  A
C438        C454   1.439       .  S
C439        C440   1.368       .  A
C439        H442   1.082       .  S
C440        C441   1.374       .  A
C440        H443   1.068       .  S
C441        C478   1.479       .  S
O444       Ni450   2.000       .  S
O444        C465   1.299       .  A
O445        C454   1.251       .  A
O446       Ni450   1.879       .  S
O446       Ni468   1.865       .  S
O446       Ni462   1.897       .  S
O446        H469   0.968       .  S
C447        O456   1.272   1_554  A
O448       Ni467   1.928       .  S
O448        C454   1.269       .  A
O449       Ni467   1.906       .  S
O449        C451   1.266       .  A
Ni450       O453   1.988       .  S
Ni450       O455   1.967       .  S
C451        C471   1.455       .  S
C451        O461   1.262       .  A
O452       Ni468   1.883       .  S
O452        C458   1.262       .  A
O453        C458   1.289       .  A
O455        C457   1.290       .  A
O456       Ni467   1.919       .  S
C457        O463   1.265       .  A
C457        N477   1.459       .  S
C458        C573   1.479       .  S
O460       Ni467   1.905   1_554  S
Ni462       O466   1.900       .  S
Ni462       O464   1.913       .  S
O463       Ni468   1.927       .  S
C465        O466   1.269       .  A
C465        N484   1.467   1_455  S
N470        C474   1.357       .  A
N470       C1059   1.348       .  A
C471        C472   1.382       .  A
C471       N1058   1.348   1_455  A
C472        C473   1.371       .  A
C472        H475   1.082       .  S
C473       C1062   1.379   1_455  A
C473        H476   1.083       .  S
C474       C1061   1.379       .  A
C474       C1076   1.466       .  S
N477        C481   1.362       .  A
N477        C478   1.357       .  A
C478        C479   1.374       .  A
C479        C480   1.371       .  A
C479        H482   1.082       .  S
C480        C481   1.394       .  A
C480        H483   1.083       .  S
N484        C488   1.371       .  A
N484       C1073   1.376       .  A
C485        C486   1.381       .  A
C485       N1072   1.376       .  A
C486        C487   1.358       .  A
C486        H489   1.082       .  S
C487       C1076   1.375       .  A
C487        H490   1.081       .  S
C488       C1075   1.375       .  A
C488       C1062   1.466       .  S
O491       Ni497   1.937       .  S
O491        C512   1.274       .  A
O492       Ni515   1.914       .  S
O493       Ni497   1.924       .  S
O493       Ni515   1.902       .  S
O493       Ni509   1.905       .  S
O493        H516   0.967       .  S
C494        O511   1.260       .  A
C494        O503   1.273       .  A
O495        C501   1.268       .  A
Ni497       O500   1.967       .  S
Ni497       O502   1.896       .  S
C498        O508   1.288       .  A
O499       Ni515   1.888       .  S
O499        C505   1.260       .  A
O500        C505   1.278       .  A
C501        N517   1.434       .  S
O502        C504   1.267       .  A
O503       Ni514   1.934       .  S
C504        O510   1.289       .  A
C504        N557   1.451       .  S
C505        C582   1.475       .  S
H506        O507   0.966       .  S
O507       Ni515   1.907       .  S
O507       Ni509   1.912       .  S
O507       Ni514   1.918       .  S
O508       Ni509   1.984       .  S
Ni509       O513   1.902       .  S
Ni509       O511   1.887       .  S
O510       Ni515   1.987       .  S
C512        O513   1.267       .  A
C512        N564   1.435       .  S
N517        C521   1.350       .  A
N517        C518   1.366       .  A
C518        C519   1.389       .  A
C518        C561   1.496       .  S
C519        C520   1.375       .  A
C519        H522   1.083       .  S
C520        C521   1.379       .  A
C520        H523   1.082       .  S
C521        C545   1.476       .  S
O524        C545   1.271       .  A
O525       Ni548   1.914       .  S
O525        C534   1.274       .  A
O526       Ni530   1.905       .  S
O526       Ni548   1.900       .  S
O526       Ni542   1.908       .  S
O526        H549   0.966       .  S
C527        C584   1.477       .  S
C527        O544   1.276       .  A
C527        O536   1.273       .  A
O528       Ni547   1.923       .  S
O528        C534   1.270       .  A
O529       Ni547   1.902       .  S
O529        C531   1.269       .  A
Ni530       O533   1.913       .  S
C531        C558   1.472       .  S
C531        O541   1.276       .  A
O532       Ni548   1.925       .  S
O532        C538   1.284       .  A
O533        C538   1.274       .  A
C534        C568   1.473       .  S
O536       Ni547   1.919       .  S
C537        O543   1.274       .  A
H539        O540   0.966       .  S
O540       Ni548   1.916       .  S
O540       Ni542   1.891       .  S
O540       Ni547   1.907       .  S
O541       Ni542   1.935       .  S
Ni542       O546   1.903       .  S
Ni542       O544   1.906       .  S
O543       Ni548   1.932       .  S
N550        C554   1.371       .  A
N550       C1139   1.354       .  A
C551        C552   1.380       .  A
C551       N1138   1.354   1_455  A
C552        C553   1.367   1_455  A
C552        H555   1.083       .  S
C553       C1142   1.390       .  A
C553        H556   1.081       .  S
C554       C1141   1.390       .  A
C554        C565   1.495       .  S
N557        C561   1.373       .  A
N557        C558   1.351       .  A
C558        C559   1.380       .  A
C559        C560   1.368       .  A
C559        H562   1.082       .  S
C560        C561   1.390       .  A
C560        H563   1.083       .  S
N564       C1156   1.345       .  A
N564        C565   1.363       .  A
C565       C1154   1.391       .  A
C566       C1153   1.391   1_455  A
C566        C567   1.377       .  A
C566        H569   1.083       .  S
C567        C568   1.379       .  A
C567        H570   1.082       .  S
C568       N1152   1.345       .  A
C571        C572   1.422   1_545  A
C571        C576   1.418   1_545  A
C571        C580   1.491       .  S
C572        C573   1.402       .  A
C572        H577   1.082   1_565  S
C573        C574   1.397       .  A
C574        C575   1.396       .  A
C575        C576   1.401       .  A
C576        H579   1.083       .  S
C580        C581   1.420       .  A
C580        C585   1.416       .  A
C581        C582   1.404       .  A
C581        H586   1.083       .  S
C582        C583   1.391       .  A
C583        C584   1.394       .  A
C583        H587   1.082       .  S
C584        C585   1.403       .  A
C585        H588   1.082       .  S
C589        C594   1.420       .  A
C589        C598   1.512       .  S
C590        C983   1.399   1_554  A
C590        H595   1.080       .  S
C591        C786   1.399       .  A
C591        C592   1.383   1_655  A
C591        C806   1.466       .  S
C592        H596   1.087       .  S
C593        C790   1.409       .  A
C593        C643   1.459       .  S
C594        C985   1.409   1_554  A
C594        H597   1.079       .  S
C598        C603   1.419       .  A
C599        C600   1.393       .  A
C599        H604   1.079       .  S
C600        C601   1.395   1_655  A
C600        C690   1.468       .  S
C601        H605   1.083       .  S
C602        C603   1.418       .  A
C602        C734   1.486       .  S
C603        H606   1.079       .  S
O607       Ni613   1.954       .  S
O607        C628   1.280       .  A
O608       Ni631   1.921       .  S
O608        C617   1.267       .  A
O609       Ni613   1.903       .  S
O609       Ni827   1.894       .  S
O609       Ni625   1.895       .  S
O609        H828   0.965       .  S
C610        C983   1.466       .  S
C610       O1019   1.265       .  A
C610        O619   1.265   1_556  A
O611       Ni630   1.917       .  S
O611        C617   1.270       .  A
O612       Ni630   1.912       .  S
O612        C614   1.279       .  A
Ni613       O616   1.971       .  S
Ni613       O618   1.922       .  S
C614        C681   1.485       .  S
C614        O624   1.279       .  A
O615       Ni631   1.884       .  S
O615       C1013   1.266       .  A
O616        C621   1.284       .  A
C617        C677   1.493       .  S
O618        C620   1.272       .  A
O619       Ni630   1.904       .  S
C620        O626   1.274       .  A
C620        N633   1.441       .  S
C621        C967   1.484       .  S
C621        O811   1.266       .  A
H622        O623   0.966   1_556  S
O623       Ni631   1.931       .  S
O623      Ni1017   1.928   1_554  S
O623       Ni630   1.920       .  S
O624      Ni1017   1.964   1_554  S
Ni625       O820   1.964       .  S
Ni625       O629   1.912       .  S
Ni625       O627   1.906       .  S
Ni625       O819   1.928       .  S
O626       Ni827   1.935       .  S
O627        C806   1.265       .  A
C628        O629   1.270       .  A
C628        N666   1.450       .  S
Ni631      O1018   1.935   1_554  S
Ni631      O1001   1.894   1_554  S
H632       O1001   0.966   1_554  S
N633        C637   1.346       .  A
N633        C634   1.340       .  A
C634        C635   1.378       .  A
C634        C650   1.439       .  S
C635        C636   1.368       .  A
C635        H638   1.082       .  S
C636        C637   1.374       .  A
C636        H639   1.068       .  S
C637        C674   1.479       .  S
O640       Ni646   2.000       .  S
O640        C661   1.299       .  A
O641       Ni860   1.869       .  S
O641        C650   1.251       .  A
O642       Ni646   1.879       .  S
O642       Ni664   1.865       .  S
O642       Ni658   1.897       .  S
O642        H665   0.968       .  S
C643        O856   1.279       .  A
C643        O652   1.272       .  A
O644       Ni663   1.928       .  S
O644        C650   1.269       .  A
O645       Ni663   1.906       .  S
O645        C647   1.266       .  A
Ni646       O649   1.988       .  S
Ni646       O651   1.967       .  S
C647        C667   1.455       .  S
C647        O657   1.262       .  A
O648       Ni664   1.883       .  S
O648        C654   1.262       .  A
O649        C654   1.289       .  A
O651        C653   1.290       .  A
O652       Ni663   1.919       .  S
C653        O659   1.265       .  A
C653        N673   1.459       .  S
C654        C769   1.479       .  S
H655       O1048   0.967       .  S
O656       Ni860   1.906       .  S
O656       Ni854   1.895       .  S
O656       Ni663   1.905       .  S
O656        H851   0.967       .  S
O657       Ni854   1.912       .  S
Ni658      O1049   1.912   1_554  S
Ni658       O662   1.900       .  S
Ni658       O660   1.913       .  S
Ni658      O1048   1.895       .  S
O659       Ni664   1.927       .  S
O660       C1035   1.279       .  A
C661        O662   1.269       .  A
C661        N680   1.467       .  S
Ni664      O1033   1.869   1_554  S
Ni664      O1048   1.906       .  S
N666        C670   1.357       .  A
C667        C668   1.382       .  A
C668        C669   1.371       .  A
C668        H671   1.082       .  S
C669        H672   1.083       .  S
N673        C677   1.362       .  A
N673        C674   1.357       .  A
C674        C675   1.374       .  A
C675        C676   1.371       .  A
C675        H678   1.082       .  S
C676        C677   1.394       .  A
C676        H679   1.083       .  S
N680        C684   1.371       .  A
C681        C682   1.381       .  A
C682        C683   1.358       .  A
C682        H685   1.082       .  S
C683        H686   1.081       .  S
O687       Ni693   1.937       .  S
O687        C708   1.274       .  A
O688       Ni711   1.914   1_556  S
O688       C1089   1.268       .  A
O689       Ni693   1.924       .  S
O689       Ni711   1.902       .  S
O689       Ni705   1.905       .  S
O689        H712   0.967       .  S
C690        O707   1.260       .  A
C690        O699   1.273       .  A
O691       Ni906   1.918       .  S
O691        C697   1.268       .  A
O692       Ni906   1.892       .  S
O692        C890   1.268       .  A
Ni693       O696   1.967       .  S
Ni693       O698   1.896       .  S
C694       O1084   1.268   1_554  A
C694        O704   1.288       .  A
C694       N1138   1.448   1_554  S
O695       Ni711   1.888       .  S
O695        C701   1.260       .  A
O696        C701   1.278       .  A
C697        O884   1.268       .  A
C697        N713   1.434       .  S
O698        C700   1.267       .  A
O699       Ni710   1.934       .  S
C700        O706   1.289       .  A
C700        N753   1.451       .  S
C701        C778   1.475       .  S
H702        O703   0.966       .  S
O703       Ni711   1.907       .  S
O703       Ni705   1.912       .  S
O703       Ni710   1.918       .  S
O704       Ni705   1.984       .  S
Ni705       O709   1.902       .  S
Ni705       O707   1.887       .  S
O706       Ni711   1.987       .  S
C708        O709   1.267       .  A
C708        N760   1.435   1_655  S
Ni710      O1083   1.918   1_554  S
Ni710      O1084   1.892   1_554  S
N713        C717   1.350       .  A
N713        C714   1.366       .  A
C714        C715   1.389       .  A
C714        C757   1.496       .  S
C715        C716   1.375       .  A
C715        H718   1.083       .  S
C716        C717   1.379       .  A
C716        H719   1.082       .  S
C717        C741   1.476       .  S
O720       Ni922   1.932       .  S
O720        C741   1.271       .  A
O721       Ni744   1.914       .  S
O721        C730   1.274       .  A
O722       Ni726   1.905       .  S
O722       Ni744   1.900       .  S
O722       Ni738   1.908       .  S
O722        H745   0.966       .  S
C723        C780   1.477       .  S
C723        O740   1.276       .  A
C723        O732   1.273       .  A
O724       Ni743   1.923       .  S
O724        C730   1.270       .  A
O725       Ni743   1.902       .  S
O725        C727   1.269       .  A
Ni726      O1112   1.932   1_554  S
Ni726       O729   1.913       .  S
Ni726      O1123   1.905   1_554  S
C727        C754   1.472       .  S
C727        O737   1.276       .  A
O728       Ni744   1.925       .  S
O728        C734   1.284       .  A
O729        C734   1.274       .  A
C730        C764   1.473       .  S
O731       Ni922   1.905       .  S
O731        C929   1.271       .  A
O732       Ni743   1.919       .  S
C733       C1139   1.473   1_554  S
C733       O1123   1.271   1_554  A
C733        O739   1.274       .  A
H735        O736   0.966       .  S
O736       Ni744   1.916       .  S
O736       Ni738   1.891       .  S
O736       Ni743   1.907       .  S
O737       Ni738   1.935       .  S
Ni738       O742   1.903       .  S
Ni738       O740   1.905       .  S
O739       Ni744   1.932       .  S
C741        O938   1.268       .  A
O742       C1133   1.268   1_554  A
N746        C890   1.448       .  S
N746        C750   1.371       .  A
C747        C748   1.380       .  A
C747        C929   1.473       .  S
C748        C749   1.367       .  A
C748        H751   1.083       .  S
C749        H752   1.081       .  S
C750        C761   1.495       .  S
N753        C757   1.373       .  A
N753        C754   1.351       .  A
C754        C755   1.380       .  A
C755        C756   1.368       .  A
C755        H758   1.082       .  S
C756        C757   1.390       .  A
C756        H759   1.083       .  S
N760        C761   1.363   1_455  A
C762        C763   1.377       .  A
C762        H765   1.083       .  S
C763        C764   1.379       .  A
C763        H766   1.082       .  S
C767        C768   1.422   1_545  A
C767        C772   1.418   1_545  A
C767        C776   1.491       .  S
C768        C769   1.402       .  A
C768        H773   1.082   1_565  S
C769        C770   1.397       .  A
C770        C771   1.396       .  A
C770       H1166   1.078       .  S
C771        C772   1.401       .  A
C771       C1013   1.484       .  S
C772        H775   1.083       .  S
H774        C966   1.078       .  S
C776        C777   1.420       .  A
C776        C781   1.416       .  A
C777        C778   1.404       .  A
C777        H782   1.083       .  S
C778        C779   1.391       .  A
C779        C780   1.394       .  A
C779        H783   1.082       .  S
C780        C781   1.403       .  A
C781        H784   1.082       .  S
C785        C790   1.420       .  A
C785        C794   1.512       .  S
C786        H791   1.080       .  S
C787        C982   1.399       .  A
C787        C788   1.383   1_655  A
C787       C1002   1.466       .  S
C788        H792   1.087       .  S
C789        C986   1.409       .  A
C789        C839   1.459       .  S
C790        H793   1.079       .  S
C794        C799   1.419       .  A
C795        C796   1.393       .  A
C795        H800   1.079       .  S
C796        C797   1.395   1_655  A
C796        C886   1.468       .  S
C797        H801   1.083       .  S
C798        C799   1.418       .  A
C798        C930   1.486       .  S
C799        H802   1.079       .  S
O803       Ni809   1.954       .  S
O803        C824   1.280       .  A
O804       Ni827   1.921       .  S
O804        C813   1.267       .  A
O805       Ni809   1.903       .  S
O805      Ni1023   1.894       .  S
O805       Ni821   1.895       .  S
O805       H1024   0.965       .  S
C806        O815   1.265       .  A
O807       Ni826   1.917       .  S
O807        C813   1.270       .  A
O808       Ni826   1.912       .  S
O808        C810   1.279       .  A
Ni809       O812   1.971       .  S
Ni809       O814   1.922       .  S
C810        C877   1.485       .  S
C810        O820   1.279       .  A
O811       Ni827   1.884       .  S
O812        C817   1.284       .  A
C813        C873   1.493       .  S
O814        C816   1.272       .  A
O815       Ni826   1.904       .  S
C816        O822   1.274       .  A
C816        N829   1.441       .  S
C817       C1163   1.484       .  S
C817       O1007   1.266       .  A
H818        O819   0.966       .  S
O819       Ni827   1.931       .  S
O819       Ni826   1.920       .  S
Ni821      O1016   1.964       .  S
Ni821       O825   1.912       .  S
Ni821       O823   1.906       .  S
Ni821      O1015   1.928       .  S
O822      Ni1023   1.935       .  S
O823       C1002   1.265       .  A
C824        O825   1.270       .  A
C824        N862   1.450       .  S
N829        C833   1.346       .  A
N829        C830   1.340       .  A
C830        C831   1.378       .  A
C830        C846   1.439       .  S
C831        C832   1.368       .  A
C831        H834   1.082       .  S
C832        C833   1.374       .  A
C832        H835   1.068       .  S
C833        C870   1.479       .  S
O836       Ni842   2.000       .  S
O836        C857   1.299       .  A
O837      Ni1056   1.869       .  S
O837        C846   1.251       .  A
O838       Ni842   1.879       .  S
O838       Ni860   1.865       .  S
O838       Ni854   1.897       .  S
O838        H861   0.968       .  S
C839       O1052   1.279       .  A
C839        O848   1.272       .  A
O840       Ni859   1.928       .  S
O840        C846   1.269       .  A
O841       Ni859   1.906       .  S
O841        C843   1.266       .  A
Ni842       O845   1.988       .  S
Ni842       O847   1.967       .  S
C843        C863   1.455       .  S
C843        O853   1.262       .  A
O844       Ni860   1.883       .  S
O844        C850   1.262       .  A
O845        C850   1.289       .  A
O847        C849   1.290       .  A
O848       Ni859   1.919       .  S
C849        O855   1.265       .  A
C849        N869   1.459       .  S
C850        C965   1.479       .  S
O852      Ni1056   1.906       .  S
O852      Ni1050   1.895       .  S
O852       Ni859   1.905       .  S
O852       H1047   0.967       .  S
O853      Ni1050   1.912       .  S
Ni854       O858   1.900       .  S
Ni854       O856   1.913       .  S
O855       Ni860   1.927       .  S
C857        O858   1.269       .  A
C857        N876   1.467       .  S
N862        C866   1.357       .  A
C863        C864   1.382       .  A
C864        C865   1.371       .  A
C864        H867   1.082       .  S
C865        H868   1.083       .  S
N869        C873   1.362       .  A
N869        C870   1.357       .  A
C870        C871   1.374       .  A
C871        C872   1.371       .  A
C871        H874   1.082       .  S
C872        C873   1.394       .  A
C872        H875   1.083       .  S
N876        C880   1.371       .  A
C877        C878   1.381       .  A
C878        C879   1.358       .  A
C878        H881   1.082       .  S
C879        H882   1.081       .  S
O883       Ni889   1.937       .  S
O883        C904   1.274       .  A
O884       Ni907   1.914       .  S
O885       Ni889   1.924       .  S
O885       Ni907   1.902       .  S
O885       Ni901   1.905       .  S
O885        H908   0.967       .  S
C886        O903   1.260       .  A
C886        O895   1.273       .  A
O887      Ni1102   1.918       .  S
O887        C893   1.268       .  A
O888      Ni1102   1.892       .  S
O888       C1086   1.268       .  A
Ni889       O892   1.967       .  S
Ni889       O894   1.896       .  S
C890        O900   1.288       .  A
O891       Ni907   1.888       .  S
O891        C897   1.260       .  A
O892        C897   1.278       .  A
C893       O1080   1.268       .  A
C893        N909   1.434       .  S
O894        C896   1.267       .  A
O895       Ni906   1.934       .  S
C896        O902   1.289       .  A
C896        N949   1.451       .  S
C897        C974   1.475       .  S
H898        O899   0.966       .  S
O899       Ni907   1.907       .  S
O899       Ni901   1.912       .  S
O899       Ni906   1.918       .  S
O900       Ni901   1.984       .  S
Ni901       O905   1.902       .  S
Ni901       O903   1.887       .  S
O902       Ni907   1.987       .  S
C904        O905   1.267       .  A
C904        N956   1.435   1_655  S
N909        C913   1.350       .  A
N909        C910   1.366       .  A
C910        C911   1.389       .  A
C910        C953   1.496       .  S
C911        C912   1.375       .  A
C911        H914   1.083       .  S
C912        C913   1.379       .  A
C912        H915   1.082       .  S
C913        C937   1.476       .  S
O916      Ni1118   1.932       .  S
O916        C937   1.271       .  A
O917       Ni940   1.914       .  S
O917        C926   1.274       .  A
O918       Ni922   1.905       .  S
O918       Ni940   1.900       .  S
O918       Ni934   1.908       .  S
O918        H941   0.966       .  S
C919        C976   1.477       .  S
C919        O936   1.276       .  A
C919        O928   1.273       .  A
O920       Ni939   1.923       .  S
O920        C926   1.270       .  A
O921       Ni939   1.902       .  S
O921        C923   1.269       .  A
Ni922       O925   1.913       .  S
C923        C950   1.472       .  S
C923        O933   1.276       .  A
O924       Ni940   1.925       .  S
O924        C930   1.284       .  A
O925        C930   1.274       .  A
C926        C960   1.473       .  S
O927      Ni1118   1.905       .  S
O927       C1125   1.271       .  A
O928       Ni939   1.919       .  S
C929        O935   1.274       .  A
H931        O932   0.966       .  S
O932       Ni940   1.916       .  S
O932       Ni934   1.891       .  S
O932       Ni939   1.907       .  S
O933       Ni934   1.935       .  S
Ni934       O938   1.903       .  S
Ni934       O936   1.906       .  S
O935       Ni940   1.932       .  S
C937       O1134   1.268       .  A
N942       C1086   1.448       .  S
N942        C946   1.371       .  A
C943        C944   1.380       .  A
C943       C1125   1.473       .  S
C944        C945   1.367       .  A
C944        H947   1.083       .  S
C945        H948   1.081       .  S
C946        C957   1.495       .  S
N949        C953   1.373       .  A
N949        C950   1.351       .  A
C950        C951   1.380       .  A
C951        C952   1.368       .  A
C951        H954   1.082       .  S
C952        C953   1.390       .  A
C952        H955   1.083       .  S
N956        C957   1.363   1_455  A
C958        C959   1.377       .  A
C958        H961   1.083       .  S
C959        C960   1.379       .  A
C959        H962   1.082       .  S
C963        C964   1.422   1_545  A
C963        C968   1.418   1_545  A
C963        C972   1.491       .  S
C964        C965   1.402       .  A
C964        H969   1.082   1_565  S
C965        C966   1.397       .  A
C966        C967   1.396       .  A
C967        C968   1.401       .  A
C968        H971   1.083       .  S
H970       C1162   1.078       .  S
C972        C973   1.420       .  A
C972        C977   1.416       .  A
C973        C974   1.404       .  A
C973        H978   1.083       .  S
C974        C975   1.391       .  A
C975        C976   1.394       .  A
C975        H979   1.082       .  S
C976        C977   1.403       .  A
C977        H980   1.082       .  S
C981        C986   1.420       .  A
C981        C990   1.512       .  S
C982        H987   1.080       .  S
C983        C984   1.383   1_655  A
C984        H988   1.087       .  S
C985       C1035   1.459   1_556  S
C986        H989   1.079       .  S
C990        C995   1.419       .  A
C991        C992   1.393       .  A
C991        H996   1.079       .  S
C992        C993   1.395   1_655  A
C992       C1082   1.468       .  S
C993        H997   1.083       .  S
C994        C995   1.418       .  A
C994       C1126   1.486       .  S
C995        H998   1.079       .  S
O999      Ni1005   1.954       .  S
O999       C1020   1.280       .  A
O1000     Ni1023   1.921       .  S
O1000      C1009   1.267       .  A
O1001     Ni1005   1.903       .  S
O1001     Ni1017   1.895       .  S
C1002      O1011   1.265       .  A
O1003     Ni1022   1.917       .  S
O1003      C1009   1.270       .  A
O1004     Ni1022   1.912       .  S
O1004      C1006   1.279       .  A
Ni1005     O1008   1.971       .  S
Ni1005     O1010   1.922       .  S
C1006      C1073   1.485       .  S
C1006      O1016   1.279       .  A
O1007     Ni1023   1.884       .  S
O1008      C1013   1.284   1_556  A
C1009      C1069   1.493       .  S
O1010      C1012   1.272       .  A
O1011     Ni1022   1.904       .  S
C1012      O1018   1.274       .  A
C1012      N1025   1.441       .  S
H1014      O1015   0.966       .  S
O1015     Ni1023   1.931       .  S
O1015     Ni1022   1.920       .  S
Ni1017     O1021   1.912       .  S
Ni1017     O1019   1.906       .  S
C1020      O1021   1.270       .  A
C1020      N1058   1.450       .  S
N1025      C1029   1.346       .  A
N1025      C1026   1.340       .  A
C1026      C1027   1.378       .  A
C1026      C1042   1.439       .  S
C1027      C1028   1.368       .  A
C1027      H1030   1.082       .  S
C1028      C1029   1.374       .  A
C1028      H1031   1.068       .  S
C1029      C1066   1.479       .  S
O1032     Ni1038   2.000       .  S
O1032      C1053   1.299       .  A
O1033      C1042   1.251       .  A
O1034     Ni1038   1.879       .  S
O1034     Ni1056   1.865       .  S
O1034     Ni1050   1.897       .  S
O1034      H1057   0.968       .  S
C1035      O1044   1.272   1_554  A
O1036     Ni1055   1.928       .  S
O1036      C1042   1.269       .  A
O1037     Ni1055   1.906       .  S
O1037      C1039   1.266       .  A
Ni1038     O1041   1.988       .  S
Ni1038     O1043   1.967       .  S
C1039      C1059   1.455       .  S
C1039      O1049   1.262       .  A
O1040     Ni1056   1.883       .  S
O1040      C1046   1.262       .  A
O1041      C1046   1.289       .  A
O1043      C1045   1.290       .  A
O1044     Ni1055   1.919       .  S
C1045      O1051   1.265       .  A
C1045      N1065   1.459       .  S
C1046      C1161   1.479       .  S
O1048     Ni1055   1.905   1_554  S
Ni1050     O1054   1.900       .  S
Ni1050     O1052   1.913       .  S
O1051     Ni1056   1.927       .  S
C1053      O1054   1.269       .  A
C1053      N1072   1.467       .  S
N1058      C1062   1.357       .  A
C1059      C1060   1.382       .  A
C1060      C1061   1.371       .  A
C1060      H1063   1.082       .  S
C1061      H1064   1.083       .  S
N1065      C1069   1.362       .  A
N1065      C1066   1.357       .  A
C1066      C1067   1.374       .  A
C1067      C1068   1.371       .  A
C1067      H1070   1.082       .  S
C1068      C1069   1.394       .  A
C1068      H1071   1.083       .  S
N1072      C1076   1.371       .  A
C1073      C1074   1.381       .  A
C1074      C1075   1.358       .  A
C1074      H1077   1.082       .  S
C1075      H1078   1.081       .  S
O1079     Ni1085   1.937       .  S
O1079      C1100   1.274       .  A
O1080     Ni1103   1.914       .  S
O1081     Ni1085   1.924       .  S
O1081     Ni1103   1.902       .  S
O1081     Ni1097   1.905       .  S
O1081      H1104   0.967       .  S
C1082      O1099   1.260       .  A
C1082      O1091   1.273       .  A
O1083      C1089   1.268       .  A
Ni1085     O1088   1.967       .  S
Ni1085     O1090   1.896       .  S
C1086      O1096   1.288       .  A
O1087     Ni1103   1.888       .  S
O1087      C1093   1.260       .  A
O1088      C1093   1.278       .  A
C1089      N1105   1.434       .  S
O1090      C1092   1.267       .  A
O1091     Ni1102   1.934       .  S
C1092      O1098   1.289       .  A
C1092      N1145   1.451       .  S
C1093      C1170   1.475       .  S
H1094      O1095   0.966       .  S
O1095     Ni1103   1.907       .  S
O1095     Ni1097   1.912       .  S
O1095     Ni1102   1.918       .  S
O1096     Ni1097   1.984       .  S
Ni1097     O1101   1.902       .  S
Ni1097     O1099   1.887       .  S
O1098     Ni1103   1.987       .  S
C1100      O1101   1.267       .  A
C1100      N1152   1.435   1_655  S
N1105      C1109   1.350       .  A
N1105      C1106   1.366       .  A
C1106      C1107   1.389       .  A
C1106      C1149   1.496       .  S
C1107      C1108   1.375       .  A
C1107      H1110   1.083       .  S
C1108      C1109   1.379       .  A
C1108      H1111   1.082       .  S
C1109      C1133   1.476       .  S
O1112      C1133   1.271       .  A
O1113     Ni1136   1.914       .  S
O1113      C1122   1.274       .  A
O1114     Ni1118   1.905       .  S
O1114     Ni1136   1.900       .  S
O1114     Ni1130   1.908       .  S
O1114      H1137   0.966       .  S
C1115      C1172   1.477       .  S
C1115      O1132   1.276       .  A
C1115      O1124   1.273       .  A
O1116     Ni1135   1.923       .  S
O1116      C1122   1.270       .  A
O1117     Ni1135   1.902       .  S
O1117      C1119   1.269       .  A
Ni1118     O1121   1.913       .  S
C1119      C1146   1.472       .  S
C1119      O1129   1.276       .  A
O1120     Ni1136   1.925       .  S
O1120      C1126   1.284       .  A
O1121      C1126   1.274       .  A
C1122      C1156   1.473       .  S
O1124     Ni1135   1.919       .  S
C1125      O1131   1.274       .  A
H1127      O1128   0.966       .  S
O1128     Ni1136   1.916       .  S
O1128     Ni1130   1.891       .  S
O1128     Ni1135   1.907       .  S
O1129     Ni1130   1.935       .  S
Ni1130     O1134   1.903       .  S
Ni1130     O1132   1.906       .  S
O1131     Ni1136   1.932       .  S
N1138      C1142   1.371       .  A
C1139      C1140   1.380       .  A
C1140      C1141   1.367       .  A
C1140      H1143   1.083       .  S
C1141      H1144   1.081       .  S
C1142      C1153   1.495       .  S
N1145      C1149   1.373       .  A
N1145      C1146   1.351       .  A
C1146      C1147   1.380       .  A
C1147      C1148   1.368       .  A
C1147      H1150   1.082       .  S
C1148      C1149   1.390       .  A
C1148      H1151   1.083       .  S
N1152      C1153   1.363   1_455  A
C1154      C1155   1.377       .  A
C1154      H1157   1.083       .  S
C1155      C1156   1.379       .  A
C1155      H1158   1.082       .  S
C1159      C1160   1.422   1_545  A
C1159      C1164   1.418   1_545  A
C1159      C1168   1.491       .  S
C1160      C1161   1.402       .  A
C1160      H1165   1.082   1_565  S
C1161      C1162   1.397       .  A
C1162      C1163   1.396       .  A
C1163      C1164   1.401       .  A
C1164      H1167   1.083       .  S
C1168      C1169   1.420       .  A
C1168      C1173   1.416       .  A
C1169      C1170   1.404       .  A
C1169      H1174   1.083       .  S
C1170      C1171   1.391       .  A
C1171      C1172   1.394       .  A
C1171      H1175   1.082       .  S
C1172      C1173   1.403       .  A
C1173      H1176   1.082       .  S
