geometry optimzed in LAMMPS
_audit_creation_date              2020-12-01 
_audit_creation_method            'lammps2cif' 
_symmetry_space_group_name_H-M    'P1' 
_symmetry_Int_Tables_number       1 
_symmetry_cell_setting            triclinic 
loop_ 
_symmetry_equiv_pos_as_xyz 
  x,y,z 
_cell_length_a                    44.23911134 
_cell_length_b                    40.31220112023965 
_cell_length_c                    38.03143919369648 
_cell_angle_alpha                 89.9967437482065 
_cell_angle_beta                  90.04026567614318 
_cell_angle_gamma                 89.97280689706697 
loop_ 
_atom_site_label 
_atom_site_type_symbol 
_atom_site_fract_x 
_atom_site_fract_y 
_atom_site_fract_z 
_atom_site_charge 
O1          O  0.24212534  0.32550551  0.15542428    -0.73200
O2          O  0.24327206  0.37796001  0.06546861    -0.74200
O3          O  0.28803326  0.35190124  0.11105008    -0.62800
O4          O  0.19724340  0.35180648  0.10943834    -0.71200
O5          O  0.19689959  0.39822985  0.14092874    -0.70700
O6          O  0.28756211  0.39927287  0.14051904    -0.62000
O7          O  0.24213035  0.42506622  0.09544093    -0.74500
O8          O  0.24251697  0.37251406  0.18559994    -0.73300
Cu9        Cu  0.24263036  0.35015746  0.10930054     1.04600
Cu10       Cu  0.24220909  0.40038439  0.14169691     1.04300
C11         C  0.24242198  0.34078190  0.18488791     0.93000
C12         C  0.24320209  0.40968751  0.06604833     0.92200
C13         C  0.30221075  0.37592450  0.12554073     0.84300
C14         C  0.18284578  0.37495457  0.12509450     0.90600
O15         O  0.49266730  0.37754369  0.18579268    -0.73200
O16         O  0.99349931  0.32554508  0.09551089    -0.74200
O17         O  0.03830781  0.35173877  0.14149540    -0.62800
O18         O  0.44769775  0.35111098  0.14007115    -0.71200
O19         O  0.44756473  0.39869980  0.11089761    -0.70700
O20         O  0.03846933  0.39826824  0.11028530    -0.62000
O21         O  0.99274995  0.37272942  0.06563098    -0.74500
O22         O  0.99343580  0.42468295  0.15582108    -0.73300
Cu23       Cu  0.99299164  0.34987850  0.14178411     1.04600
Cu24       Cu  0.99300594  0.40024155  0.10961685     1.04300
C25         C  0.99342503  0.40929292  0.18521080     0.93000
C26         C  0.99331816  0.34101892  0.06615815     0.92200
C27         C  0.05268958  0.37505435  0.12613325     0.84300
C28         C  0.43325481  0.37463350  0.12511422     0.90600
O29         O  0.24893124  0.07495467  0.40461853    -0.73200
O30         O  0.24636031  0.12679776  0.31415049    -0.74200
O31         O  0.29289431  0.10199056  0.35820750    -0.62800
O32         O  0.20234507  0.09961810  0.36047534    -0.71200
O33         O  0.20199377  0.14649029  0.39077312    -0.70700
O34         O  0.29248174  0.14940678  0.38764440    -0.62000
O35         O  0.24550410  0.17393469  0.34408707    -0.74500
O36         O  0.24899932  0.12223507  0.43431754    -0.73300
Cu37       Cu  0.24761968  0.09920793  0.35829013     1.04600
Cu38       Cu  0.24719485  0.14962649  0.39024317     1.04300
C39         C  0.24945819  0.09052024  0.43391027     0.93000
C40         C  0.24578822  0.15853344  0.31471858     0.92200
C41         C  0.30705628  0.12620815  0.37231375     0.84300
C42         C  0.18777341  0.12248796  0.37632538     0.90600
O43         O  0.49667388  0.12728063  0.43594907    -0.73200
O44         O  0.49741453  0.07514418  0.34555166    -0.74200
O45         O  0.04230330  0.10050176  0.39185369    -0.62800
O46         O  0.45179351  0.10169202  0.38963035    -0.71200
O47         O  0.45251029  0.14863605  0.35929763    -0.70700
O48         O  0.04311104  0.14820371  0.36278934    -0.62000
O49         O  0.49886805  0.12238760  0.31583654    -0.74500
O50         O  0.49684932  0.17447017  0.40607760    -0.73300
Cu51       Cu  0.49697155  0.09954225  0.39183700     1.04600
Cu52       Cu  0.49784527  0.15004066  0.35994004     1.04300
C53         C  0.49686046  0.15902994  0.43542931     0.93000
C54         C  0.49839674  0.09065014  0.31623959     0.92200
C55         C  0.05701904  0.12438934  0.37795658     0.84300
C56         C  0.43781653  0.12497711  0.37369070     0.90600
O57         O  0.25083401  0.32464304  0.34531701    -0.73200
O58         O  0.25324282  0.37677401  0.43575061    -0.74200
O59         O  0.20688271  0.35056761  0.39238802    -0.62800
O60         O  0.29724528  0.35050742  0.38867194    -0.71200
O61         O  0.29638044  0.39783015  0.35893239    -0.70700
O62         O  0.20570297  0.39758304  0.36254477    -0.62000
O63         O  0.25232304  0.42388959  0.40578043    -0.74500
O64         O  0.24981553  0.37189183  0.31559337    -0.73300
Cu65       Cu  0.25211167  0.34902288  0.39161004     1.04600
Cu66       Cu  0.25104440  0.39942686  0.35966305     1.04300
C67         C  0.24993934  0.34016538  0.31600697     0.93000
C68         C  0.25290139  0.40852566  0.43516776     0.92200
C69         C  0.19181560  0.37388231  0.37799008     0.84300
C70         C  0.31111180  0.37396640  0.37295555     0.90600
O71         O  0.00286336  0.37759161  0.31565221    -0.73200
O72         O  0.50069493  0.32560430  0.40584632    -0.74200
O73         O  0.45640227  0.35198796  0.35915272    -0.62800
O74         O  0.04708419  0.35147136  0.36241791    -0.71200
O75         O  0.04650517  0.39930895  0.39136816    -0.70700
O76         O  0.45607557  0.39883142  0.38952686    -0.62000
O77         O  0.50071672  0.37278010  0.43573078    -0.74500
O78         O  0.00186727  0.42484393  0.34540409    -0.73300
Cu79       Cu  0.00180432  0.35003801  0.35972392     1.04600
Cu80       Cu  0.00128677  0.40054870  0.39161673     1.04300
C81         C  0.00240763  0.40931716  0.31610342     0.93000
C82         C  0.50046918  0.34102516  0.43520298     0.92200
C83         C  0.44184099  0.37574998  0.37361779     0.84300
C84         C  0.06104321  0.37552806  0.37706001     0.90600
C85         C  0.25223950  0.42750286  0.46871352     0.02900
C86         C  0.24792900  0.41099872  0.00064152    -0.13300
C87         C  0.24539967  0.42839732  0.03241379     0.00400
C88         C  0.24597376  0.46333364  0.03185990    -0.11800
C89         C  0.25097227  0.48120538  0.00024742     0.02900
C90         C  0.25480340  0.46231108  0.46893677    -0.11200
H91         H  0.24668171  0.38416479  0.00072111     0.08500
H92         H  0.24229545  0.47613911  0.05637593     0.06000
H93         H  0.25976695  0.47440186  0.44432202     0.05900
C94         C  0.25646528  0.07220061  0.03135800     0.02900
C95         C  0.25643747  0.03724798  0.03125337    -0.13300
C96         C  0.25185547  0.01894879  0.99987500     0.00400
C97         C  0.24921783  0.03710020  0.46823418    -0.11800
C98         C  0.25105798  0.07193215  0.46760156     0.02900
C99         C  0.25397035  0.08917555  0.99934887    -0.11200
H100        H  0.26006972  0.02471274  0.05595052     0.08500
H101        H  0.24459460  0.02457136  0.44376194     0.06000
H102        H  0.25466613  0.11603317  0.99915578     0.05900
C103        C  0.25323182  0.17808889  0.21756327     0.02900
C104        C  0.25300780  0.21299603  0.21813653    -0.13300
C105        C  0.24803058  0.23089535  0.24968701     0.00400
C106        C  0.24426046  0.21229634  0.28100114    -0.11800
C107        C  0.24647752  0.17746814  0.28118891     0.02900
C108        C  0.25040976  0.16068182  0.24928254    -0.11200
H109        H  0.25702757  0.22576116  0.19367252     0.08500
H110        H  0.23940815  0.22444726  0.30561353     0.06000
H111        H  0.25140616  0.13383472  0.24916344     0.05900
C112        C  0.24861141  0.32151907  0.28229696     0.02900
C113        C  0.25023282  0.28666038  0.28170064    -0.13300
C114        C  0.24699374  0.26852398  0.24998606     0.00400
C115        C  0.24302100  0.28689527  0.21853641    -0.11800
C116        C  0.24344661  0.32180807  0.21841589     0.02900
C117        C  0.24567862  0.33875995  0.25047702    -0.11200
H118        H  0.25445953  0.27414035  0.30626954     0.08500
H119        H  0.23944285  0.27448793  0.19376805     0.06000
H120        H  0.24528814  0.36562462  0.25064784     0.05900
C121        C  0.99525757  0.42810718  0.21877335     0.02900
C122        C  0.49509068  0.46302026  0.21910099    -0.13300
C123        C  0.49971552  0.48116460  0.25058433     0.00400
C124        C  0.50343392  0.46281302  0.28205579    -0.11800
C125        C  0.00157227  0.42801160  0.28246501     0.02900
C126        C  0.99806405  0.41095513  0.25064371    -0.11200
H127        H  0.49113827  0.47562241  0.19451979     0.08500
H128        H  0.50808722  0.47515049  0.30661677     0.06000
H129        H  0.99743564  0.38409360  0.25069889     0.05900
C130        C  0.49953893  0.07193533  0.28253168     0.02900
C131        C  0.50327332  0.08903051  0.25073302    -0.13300
C132        C  0.50556305  0.07195633  0.21873397     0.00400
C133        C  0.50518471  0.03703646  0.21891528    -0.11800
C134        C  0.50053468  0.01884512  0.25032540     0.02900
C135        C  0.49717818  0.03711448  0.28194141    -0.11200
H136        H  0.50426156  0.11587653  0.25086883     0.08500
H137        H  0.50874942  0.02444777  0.19424997     0.06000
H138        H  0.49240345  0.02470137  0.30643041     0.05900
C139        C  0.49799835  0.17787726  0.46901665     0.02900
C140        C  0.50151488  0.16136711  0.00077382    -0.13300
C141        C  0.50443100  0.17855057  0.03260935     0.00400
C142        C  0.50458655  0.21349674  0.03218452    -0.11800
C143        C  0.49978761  0.23163360  0.00067785     0.02900
C144        C  0.49608733  0.21273688  0.46936616    -0.11200
H145        H  0.50217430  0.13450705  0.00076542     0.08500
H146        H  0.50861255  0.22608152  0.05674637     0.06000
H147        H  0.49135062  0.22501228  0.44479451     0.05900
C148        C  0.99455608  0.32234185  0.03252290     0.02900
C149        C  0.49458032  0.28742674  0.03215108    -0.13300
C150        C  0.49860599  0.26930646  0.00058420     0.00400
C151        C  0.50147041  0.28725654  0.46913680    -0.11800
C152        C  0.99952225  0.32215478  0.46880374     0.02900
C153        C  0.99649575  0.33958944  0.00062267    -0.11200
H154        H  0.49122713  0.27483775  0.05684151     0.08500
H155        H  0.50560258  0.27494921  0.44444382     0.06000
H156        H  0.99577659  0.36644813  0.00066251     0.05900
O157        O  0.30225160  0.14999469  0.10957692    -0.73200
O158        O  0.21178858  0.14859369  0.10957170    -0.74200
O159        O  0.25644760  0.17512798  0.15464031    -0.62800
O160        O  0.25728412  0.12292681  0.06430355    -0.71200
O161        O  0.25869949  0.07579632  0.09422959    -0.70700
O162        O  0.25616439  0.12781985  0.18430132    -0.62000
O163        O  0.21225232  0.10058817  0.13824089    -0.74500
O164        O  0.30287535  0.10332806  0.14021369    -0.73300
Cu165      Cu  0.25698543  0.15075846  0.10840034     1.04600
Cu166      Cu  0.25759481  0.10025345  0.14028761     1.04300
C167        C  0.31697524  0.12721166  0.12538208     0.93000
C168        C  0.19778117  0.12453035  0.12405492     0.92200
C169        C  0.25565283  0.15954459  0.18390743     0.84300
C170        C  0.25784794  0.09117149  0.06486803     0.90600
O171        O  0.50598004  0.12795395  0.06565341    -0.73200
O172        O  0.50715036  0.07543908  0.15574407    -0.74200
O173        O  0.46154660  0.10222891  0.11201303    -0.62800
O174        O  0.05181244  0.10088043  0.10933892    -0.71200
O175        O  0.05330331  0.14757249  0.13970141    -0.70700
O176        O  0.46250891  0.14971701  0.14147547    -0.62000
O177        O  0.50796477  0.12253512  0.18573621    -0.74500
O178        O  0.50762446  0.17505547  0.09557864    -0.73300
Cu179      Cu  0.50664014  0.10005047  0.10961234     1.04600
Cu180      Cu  0.50796473  0.15035639  0.14170180     1.04300
C181        C  0.50636444  0.15969953  0.06620499     0.93000
C182        C  0.50726436  0.09080555  0.18515240     0.92200
C183        C  0.44772812  0.12597831  0.12730573     0.84300
C184        C  0.06703356  0.12378490  0.12418428     0.90600
C185        C  0.14918804  0.09662998  0.11146415    -0.09400
C186        C  0.16458307  0.12439142  0.12433800     0.06800
C187        C  0.14805302  0.15158182  0.13718117    -0.03200
C188        C  0.11648967  0.15072544  0.13682266    -0.06800
C189        C  0.10067241  0.12309398  0.12356849     0.05900
C190        C  0.11758141  0.09575322  0.11057246    -0.02600
Br191      Br  0.09993416  0.05615748  0.09121916    -0.02300
H192        H  0.16189473  0.07564389  0.10150920     0.09800
H193        H  0.10433121  0.17192365  0.14712083     0.07900
Br194      Br  0.16751796  0.18964347  0.15744541    -0.02800
C195        C  0.36605631  0.09811191  0.13281635    -0.09400
C196        C  0.35050777  0.12793248  0.12635259     0.06800
C197        C  0.36747416  0.15738110  0.12148980    -0.03200
C198        C  0.39907550  0.15620744  0.12251923    -0.07600
C199        C  0.41441033  0.12622490  0.12807262     0.05900
C200        C  0.39760249  0.09702990  0.13373616    -0.02600
Br201      Br  0.41628864  0.05532041  0.14502799    -0.02300
H202        H  0.35364103  0.07531185  0.13709869     0.09800
H203        H  0.41178817  0.17885964  0.11846402     0.07900
Br204      Br  0.34954062  0.20035350  0.11467269    -0.02800
C205        C  0.14259919  0.40220021  0.36732726    -0.09400
C206        C  0.15817393  0.37372750  0.37892872     0.06800
C207        C  0.14102764  0.34599785  0.39039557    -0.03200
C208        C  0.10945003  0.34716358  0.38924523    -0.07600
C209        C  0.09425949  0.37559948  0.37770620     0.05900
C210        C  0.11102754  0.40337876  0.36682132    -0.02600
Br211      Br  0.09198441  0.44277122  0.34895103    -0.02300
H212        H  0.15496843  0.42378994  0.35839347     0.09800
H213        H  0.09658988  0.32576288  0.39782399     0.07900
Br214      Br  0.15829881  0.30536542  0.40769142    -0.02800
C215        C  0.35971346  0.40429996  0.37501723    -0.09400
C216        C  0.34443877  0.37401331  0.37164687     0.06800
C217        C  0.36133579  0.34460657  0.36742553    -0.03200
C218        C  0.39292142  0.34589341  0.36774294    -0.07600
C219        C  0.40833683  0.37608777  0.37230073     0.05900
C220        C  0.39127669  0.40565646  0.37545780    -0.02600
Br221      Br  0.40907636  0.44900950  0.37899992    -0.02300
H222        H  0.34698664  0.42712306  0.37783280     0.09800
H223        H  0.40547702  0.32299060  0.36473606     0.07900
Br224      Br  0.34275127  0.30222899  0.35918595    -0.02800
C225        C  0.10558898  0.09385832  0.37404885    -0.09400
C226        C  0.09036327  0.12404820  0.37888008     0.06800
C227        C  0.10731882  0.15319363  0.38423461    -0.03200
C228        C  0.13885819  0.15187359  0.38356142    -0.07600
C229        C  0.15426557  0.12187645  0.37761368     0.05900
C230        C  0.13718855  0.09245568  0.37326495    -0.02600
Br231      Br  0.15501223  0.04928599  0.36748489    -0.02300
H232        H  0.09279561  0.07120532  0.37034898     0.09800
H233        H  0.15138259  0.17466206  0.38748831     0.07900
Br234      Br  0.08890408  0.19522186  0.39464113    -0.02800
C235        C  0.35606430  0.09633724  0.37024823    -0.09400
C236        C  0.34051643  0.12670448  0.37149210     0.06800
C237        C  0.35735416  0.15649336  0.37199093    -0.03200
C238        C  0.38895572  0.15528544  0.37230899    -0.07600
C239        C  0.40442964  0.12487105  0.37221042     0.05900
C240        C  0.38762973  0.09514396  0.37058316    -0.02600
Br241      Br  0.40616175  0.05215415  0.36674970    -0.02300
H242        H  0.34359215  0.07322836  0.36932944     0.09800
H243        H  0.40151702  0.17834570  0.37298873     0.07900
Br244      Br  0.33896876  0.19966841  0.37044341    -0.02800
C245        C  0.13419298  0.37016143  0.15676493    -0.09400
C246        C  0.14966672  0.37482402  0.12501359     0.06800
C247        C  0.13323140  0.37984648  0.09379908    -0.03200
C248        C  0.10160969  0.38028160  0.09471918    -0.07600
C249        C  0.08601295  0.37502235  0.12637554     0.05900
C250        C  0.10257086  0.36989485  0.15763411    -0.02600
Br251      Br  0.08323704  0.36434989  0.20245326    -0.02300
H252        H  0.14677115  0.36657986  0.18093256     0.09800
H253        H  0.08914717  0.38434396  0.07056074     0.07900
Br254      Br  0.15313044  0.38745624  0.04969662    -0.02800
C255        C  0.35129891  0.34593861  0.12307395    -0.09400
C256        C  0.33575017  0.37628292  0.12515565     0.06800
C257        C  0.35267902  0.40602547  0.12626890    -0.03200
C258        C  0.38428776  0.40478747  0.12595113    -0.07600
C259        C  0.39978045  0.37441669  0.12466006     0.05900
C260        C  0.38290398  0.34472592  0.12281768    -0.02600
Br261      Br  0.40132794  0.30180731  0.11770176    -0.02300
H262        H  0.33879799  0.32286687  0.12173218     0.09800
H263        H  0.39686366  0.42782880  0.12697005     0.07900
Br264      Br  0.33448282  0.44932631  0.12633378    -0.02800
O265        O  0.24238313  0.32548663  0.65557706    -0.73200
O266        O  0.24348370  0.37773571  0.56549897    -0.74200
O267        O  0.28826573  0.35175467  0.61110114    -0.62800
O268        O  0.19746805  0.35171041  0.60958778    -0.71200
O269        O  0.19716669  0.39817094  0.64101671    -0.70700
O270        O  0.28782271  0.39916887  0.64049488    -0.62000
O271        O  0.24237221  0.42487604  0.59541492    -0.74500
O272        O  0.24281985  0.37253175  0.68569048    -0.73300
Cu273      Cu  0.24285817  0.35003180  0.60940130     1.04600
Cu274      Cu  0.24247703  0.40030263  0.64172363     1.04300
C275        C  0.24272022  0.34080083  0.68501841     0.93000
C276        C  0.24343417  0.40946217  0.56604178     0.92200
C277        C  0.30245643  0.37579599  0.62554114     0.84300
C278        C  0.18309097  0.37488616  0.62522579     0.90600
O279        O  0.49285582  0.37778630  0.68581622    -0.73200
O280        O  0.99377851  0.32532842  0.59571589    -0.74200
O281        O  0.03854891  0.35177844  0.64167260    -0.62800
O282        O  0.44794211  0.35107534  0.64016881    -0.71200
O283        O  0.44779644  0.39856738  0.61081808    -0.70700
O284        O  0.03870406  0.39819211  0.61027223    -0.62000
O285        O  0.99300700  0.37241716  0.56567766    -0.74500
O286        O  0.99362137  0.42480936  0.65566567    -0.73300
Cu287      Cu  0.99323400  0.34988734  0.64191910     1.04600
Cu288      Cu  0.99323643  0.40013417  0.60955827     1.04300
C289        C  0.99358233  0.40953223  0.68512272     0.93000
C290        C  0.99357453  0.34070389  0.56629957     0.92200
C291        C  0.05292847  0.37504915  0.62623305     0.84300
C292        C  0.43349402  0.37454025  0.62511889     0.90600
O293        O  0.24833459  0.07505682  0.90463609    -0.73200
O294        O  0.24598622  0.12691183  0.81419713    -0.74200
O295        O  0.29241362  0.10216237  0.85840183    -0.62800
O296        O  0.20184213  0.09977682  0.86036910    -0.71200
O297        O  0.20144769  0.14662980  0.89069674    -0.70700
O298        O  0.29191962  0.14959051  0.88782466    -0.62000
O299        O  0.24504914  0.17405469  0.84412186    -0.74500
O300        O  0.24836545  0.12231565  0.93437247    -0.73300
Cu301      Cu  0.24713146  0.09934505  0.85833189     1.04600
Cu302      Cu  0.24663898  0.14975708  0.89029677     1.04300
C303        C  0.24882225  0.09059560  0.93394071     0.93000
C304        C  0.24543151  0.15864297  0.81475690     0.92200
C305        C  0.30653148  0.12640589  0.87252518     0.84300
C306        C  0.18724554  0.12265793  0.87617448     0.90600
O307        O  0.49633309  0.12773142  0.93594569    -0.73200
O308        O  0.49681220  0.07538814  0.84570888    -0.74200
O309        O  0.04181166  0.10085760  0.89175507    -0.62800
O310        O  0.45131227  0.10210485  0.88988634    -0.71200
O311        O  0.45195290  0.14897725  0.85943444    -0.70700
O312        O  0.04256113  0.14852014  0.86261063    -0.62000
O313        O  0.49821765  0.12257682  0.81589247    -0.74500
O314        O  0.49643467  0.17488041  0.90599995    -0.73300
Cu315      Cu  0.49648872  0.09991330  0.89191890     1.04600
Cu316      Cu  0.49729428  0.15035434  0.85991692     1.04300
C317        C  0.49653624  0.15947645  0.93537364     0.93000
C318        C  0.49778956  0.09083575  0.81636563     0.92200
C319        C  0.05649644  0.12471886  0.87776440     0.84300
C320        C  0.43729281  0.12535482  0.87394053     0.90600
O321        O  0.25119076  0.32470656  0.84548461    -0.73200
O322        O  0.25311101  0.37695814  0.93587074    -0.74200
O323        O  0.20697341  0.35047120  0.89238175    -0.62800
O324        O  0.29736997  0.35089750  0.88907781    -0.71200
O325        O  0.29649055  0.39806530  0.85911427    -0.70700
O326        O  0.20583309  0.39749867  0.86251061    -0.62000
O327        O  0.25226725  0.42402785  0.90581561    -0.74500
O328        O  0.25007490  0.37192758  0.81571766    -0.73300
Cu329      Cu  0.25222907  0.34915189  0.89178394     1.04600
Cu330      Cu  0.25115126  0.39950178  0.85974360     1.04300
C331        C  0.25028557  0.34020477  0.81615521     0.93000
C332        C  0.25274998  0.40870741  0.93522788     0.92200
C333        C  0.19193959  0.37376318  0.87788314     0.84300
C334        C  0.31125290  0.37431524  0.87331001     0.90600
O335        O  0.00288395  0.37816982  0.81561307    -0.73200
O336        O  0.50081623  0.32619471  0.90574354    -0.74200
O337        O  0.45651585  0.35269586  0.85923152    -0.62800
O338        O  0.04714911  0.35201022  0.86224948    -0.71200
O339        O  0.04665062  0.39971013  0.89142137    -0.70700
O340        O  0.45618701  0.39969934  0.88938699    -0.62000
O341        O  0.50071065  0.37334817  0.93566794    -0.74500
O342        O  0.00212066  0.42545214  0.84532153    -0.73300
Cu343      Cu  0.00188245  0.35065106  0.85967060     1.04600
Cu344      Cu  0.00142096  0.40116885  0.89156448     1.04300
C345        C  0.00251976  0.40989053  0.81603175     0.93000
C346        C  0.50051061  0.34158541  0.93510956     0.92200
C347        C  0.44197581  0.37652567  0.87359069     0.84300
C348        C  0.06116561  0.37595931  0.87701579     0.90600
C349        C  0.25198171  0.42772731  0.96873217     0.02900
C350        C  0.24815879  0.41075798  0.50061454    -0.13300
C351        C  0.24565722  0.42814937  0.53240072     0.00400
C352        C  0.24628671  0.46308180  0.53187384    -0.11800
C353        C  0.25131677  0.48096240  0.50028691     0.02900
C354        C  0.25446756  0.46254090  0.96891375    -0.11200
H355        H  0.24685357  0.38392739  0.50067651     0.08500
H356        H  0.24262367  0.47588408  0.55639542     0.06000
H357        H  0.25939912  0.47462667  0.94428763     0.05900
C358        C  0.25697338  0.07223964  0.53137303     0.02900
C359        C  0.25712333  0.03728668  0.53127246    -0.13300
C360        C  0.25268269  0.01895849  0.49988364     0.00400
C361        C  0.24838887  0.03713449  0.96823970    -0.11800
C362        C  0.25039114  0.07196312  0.96761428     0.02900
C363        C  0.25447110  0.08918540  0.49934424    -0.11200
H364        H  0.26076648  0.02476811  0.55597941     0.08500
H365        H  0.24365352  0.02465319  0.94377028     0.06000
H366        H  0.25502650  0.11604676  0.49914264     0.05900
C367        C  0.25334691  0.17815539  0.71763107     0.02900
C368        C  0.25328422  0.21306499  0.71823318    -0.13300
C369        C  0.24822564  0.23096454  0.74976992     0.00400
C370        C  0.24422095  0.21238511  0.78104116    -0.11800
C371        C  0.24629383  0.17755512  0.78122544     0.02900
C372        C  0.25029806  0.16075369  0.74933103    -0.11200
H373        H  0.25748522  0.22583837  0.69381117     0.08500
H374        H  0.23930249  0.22456728  0.80562185     0.06000
H375        H  0.25117452  0.13390197  0.74920764     0.05900
C376        C  0.24900375  0.32155501  0.78243867     0.02900
C377        C  0.25059792  0.28669428  0.78182894    -0.13300
C378        C  0.24730374  0.26858060  0.75010442     0.00400
C379        C  0.24332364  0.28695105  0.71867160    -0.11800
C380        C  0.24378451  0.32185559  0.71855528     0.02900
C381        C  0.24606685  0.33880426  0.75061549    -0.11200
H382        H  0.25481747  0.27414679  0.80638794     0.08500
H383        H  0.23969246  0.27453409  0.69391573     0.06000
H384        H  0.24569162  0.36566900  0.75078147     0.05900
C385        C  0.99533159  0.42846842  0.71864380     0.02900
C386        C  0.49504978  0.46340488  0.71891057    -0.13300
C387        C  0.49956492  0.48161176  0.75039586     0.00400
C388        C  0.50333869  0.46332376  0.78188870    -0.11800
C389        C  0.00161054  0.42851876  0.78235785     0.02900
C390        C  0.99816409  0.41139451  0.75056233    -0.11200
H391        H  0.49110777  0.47596537  0.69430018     0.08500
H392        H  0.50795129  0.47571190  0.80643145     0.06000
H393        H  0.99762982  0.38453140  0.75067316     0.05900
C394        C  0.49906783  0.07206155  0.78270012     0.02900
C395        C  0.50295752  0.08913692  0.75091558    -0.13300
C396        C  0.50553454  0.07203454  0.71897111     0.00400
C397        C  0.50525966  0.03712920  0.71917688    -0.11800
C398        C  0.50043300  0.01895317  0.75053698     0.02900
C399        C  0.49682012  0.03721918  0.78212534    -0.11200
H400        H  0.50386983  0.11598669  0.75101775     0.08500
H401        H  0.50906460  0.02452257  0.69456759     0.06000
H402        H  0.49197121  0.02477687  0.80658342     0.05900
C403        C  0.49778560  0.17834368  0.96893299     0.02900
C404        C  0.50176791  0.16090284  0.50084998    -0.13300
C405        C  0.50463500  0.17810137  0.53268395     0.00400
C406        C  0.50469980  0.21304090  0.53228267    -0.11800
C407        C  0.49985517  0.23117359  0.50080535     0.02900
C408        C  0.49598887  0.21320458  0.96925245    -0.11200
H409        H  0.50251107  0.13404546  0.50083670     0.08500
H410        H  0.50869410  0.22562838  0.55684871     0.06000
H411        H  0.49129672  0.22549563  0.94467634     0.05900
C412        C  0.99475058  0.32193558  0.53268348     0.02900
C413        C  0.49475854  0.28700378  0.53234639    -0.13300
C414        C  0.49866218  0.26884868  0.50075459     0.00400
C415        C  0.50148914  0.28774374  0.96898193    -0.11800
C416        C  0.99951426  0.32264969  0.96868234     0.02900
C417        C  0.99660372  0.33913500  0.50073954    -0.11200
H418        H  0.49149006  0.27444569  0.55707027     0.08500
H419        H  0.50568315  0.27544582  0.94429550     0.06000
H420        H  0.99589804  0.36599398  0.50073850     0.05900
O421        O  0.30249733  0.15005544  0.60963867    -0.73200
O422        O  0.21202162  0.14862852  0.60957937    -0.74200
O423        O  0.25665645  0.17519165  0.65469949    -0.62800
O424        O  0.25757871  0.12298035  0.56432638    -0.71200
O425        O  0.25901246  0.07585561  0.59425914    -0.70700
O426        O  0.25633628  0.12788293  0.68435579    -0.62000
O427        O  0.21249407  0.10061010  0.63822319    -0.74500
O428        O  0.30309636  0.10340093  0.64029860    -0.73300
Cu429      Cu  0.25722824  0.15081512  0.60843996     1.04600
Cu430      Cu  0.25782915  0.10031156  0.64032659     1.04300
C431        C  0.31720804  0.12725642  0.62543561     0.93000
C432        C  0.19801792  0.12454889  0.62404081     0.92200
C433        C  0.25582422  0.15960929  0.68396854     0.84300
C434        C  0.25820419  0.09122499  0.56489103     0.90600
O435        O  0.50624256  0.12756024  0.56579059    -0.73200
O436        O  0.50734464  0.07537275  0.65602131    -0.74200
O437        O  0.46178639  0.10197898  0.61216395    -0.62800
O438        O  0.05205436  0.10067478  0.60960087    -0.71200
O439        O  0.05351724  0.14743665  0.63984217    -0.70700
O440        O  0.46272173  0.14953154  0.64150996    -0.62000
O441        O  0.50812218  0.12253626  0.68590397    -0.74500
O442        O  0.50785470  0.17472264  0.59561779    -0.73300
Cu443      Cu  0.50688098  0.09981229  0.60982972     1.04600
Cu444      Cu  0.50817102  0.15019375  0.64179460     1.04300
C445        C  0.50660257  0.15930270  0.56628429     0.93000
C446        C  0.50739096  0.09081174  0.68538441     0.92200
C447        C  0.44795383  0.12576611  0.62737161     0.84300
C448        C  0.06726309  0.12363046  0.62437436     0.90600
C449        C  0.14943743  0.09663183  0.61141576    -0.09400
C450        C  0.16481845  0.12438693  0.62432787     0.06800
C451        C  0.14827393  0.15152458  0.63726891    -0.03200
C452        C  0.11670976  0.15061332  0.63699344    -0.06800
C453        C  0.10090495  0.12298491  0.62370922     0.05900
C454        C  0.11783013  0.09570775  0.61058929    -0.02600
Br455      Br  0.10020736  0.05615051  0.59111504    -0.02300
H456        H  0.16215540  0.07568747  0.60138182     0.09800
H457        H  0.10454156  0.17176906  0.64737239     0.07900
Br458      Br  0.16772766  0.18958825  0.65754200    -0.02800
C459        C  0.36623282  0.09803390  0.63274239    -0.09400
C460        C  0.35073921  0.12790206  0.62634568     0.06800
C461        C  0.36775716  0.15730932  0.62147318    -0.03200
C462        C  0.39935346  0.15606657  0.62252254    -0.07600
C463        C  0.41463586  0.12604827  0.62806205     0.05900
C464        C  0.39777570  0.09687355  0.63364316    -0.02600
Br465      Br  0.41636774  0.05507340  0.64477222    -0.02300
H466        H  0.35377499  0.07525495  0.63698513     0.09800
H467        H  0.41210495  0.17869611  0.61849014     0.07900
Br468      Br  0.34990628  0.20031042  0.61458048    -0.02800
C469        C  0.14287386  0.40287515  0.86927161    -0.09400
C470        C  0.15832406  0.37365048  0.87874345     0.06800
C471        C  0.14110594  0.34529227  0.88805480    -0.03200
C472        C  0.10952935  0.34668728  0.88709174    -0.07600
C473        C  0.09441402  0.37589296  0.87769951     0.05900
C474        C  0.11131377  0.40423163  0.86881699    -0.02600
Br475      Br  0.09257457  0.44477361  0.85359496    -0.02300
H476        H  0.15535071  0.42493769  0.86198153     0.09800
H477        H  0.09662075  0.32479938  0.89403060     0.07900
Br478      Br  0.15835574  0.30340903  0.90160832    -0.02800
C479        C  0.35984466  0.40490494  0.87343072    -0.09400
C480        C  0.34461940  0.37441274  0.87204696     0.06800
C481        C  0.36163467  0.34487133  0.86969748    -0.03200
C482        C  0.39320041  0.34630189  0.86983174    -0.07600
C483        C  0.40850971  0.37673637  0.87237398     0.05900
C484        C  0.39141642  0.40637104  0.87368181    -0.02600
Br485      Br  0.40930417  0.44980123  0.87420160    -0.02300
H486        H  0.34709319  0.42782765  0.87477935     0.09800
H487        H  0.40584830  0.32332656  0.86829725     0.07900
Br488      Br  0.34337752  0.30191729  0.86435637    -0.02800
C489        C  0.10502703  0.09416893  0.87363485    -0.09400
C490        C  0.08983558  0.12436003  0.87858044     0.06800
C491        C  0.10681533  0.15347627  0.88399415    -0.03200
C492        C  0.13835391  0.15211279  0.88334256    -0.07600
C493        C  0.15373261  0.12210299  0.87734058     0.05900
C494        C  0.13662252  0.09272542  0.87285175    -0.02600
Br495      Br  0.15438534  0.04955372  0.86687187    -0.02300
H496        H  0.09220708  0.07154384  0.86986241     0.09800
H497        H  0.15090038  0.17487483  0.88734685     0.07900
Br498      Br  0.08842953  0.19550851  0.89446651    -0.02800
C499        C  0.35556317  0.09660334  0.87082439    -0.09400
C500        C  0.33998532  0.12695328  0.87176306     0.06800
C501        C  0.35678243  0.15677161  0.87200830    -0.03200
C502        C  0.38838890  0.15561280  0.87236187    -0.07600
C503        C  0.40389907  0.12521540  0.87253805     0.05900
C504        C  0.38712551  0.09545463  0.87119218    -0.02600
Br505      Br  0.40567292  0.05244313  0.86778672    -0.02300
H506        H  0.34311298  0.07347317  0.87011273     0.09800
H507        H  0.40092218  0.17869553  0.87282206     0.07900
Br508      Br  0.33831845  0.19989216  0.87000747    -0.02800
C509        C  0.13442956  0.37019836  0.65691140    -0.09400
C510        C  0.14991042  0.37478954  0.62515230     0.06800
C511        C  0.13348088  0.37978339  0.59392918    -0.03200
C512        C  0.10186005  0.38023854  0.59484120    -0.07600
C513        C  0.08625391  0.37503535  0.62650093     0.05900
C514        C  0.10280552  0.36995930  0.65777600    -0.02600
Br515      Br  0.08346472  0.36452461  0.70260734    -0.02300
H516        H  0.14700296  0.36664962  0.68108759     0.09800
H517        H  0.08940491  0.38426672  0.57067094     0.07900
Br518      Br  0.15338790  0.38732823  0.54982005    -0.02800
C519        C  0.35154929  0.34580979  0.62311580    -0.09400
C520        C  0.33599417  0.37615416  0.62513443     0.06800
C521        C  0.35291505  0.40590364  0.62618384    -0.03200
C522        C  0.38452267  0.40467505  0.62588541    -0.07600
C523        C  0.40002200  0.37430759  0.62465869     0.05900
C524        C  0.38315565  0.34460787  0.62286680    -0.02600
Br525      Br  0.40160082  0.30169314  0.61782090    -0.02300
H526        H  0.33905340  0.32273279  0.62181910     0.09800
H527        H  0.39709246  0.42772158  0.62685914     0.07900
Br528      Br  0.33470882  0.44919967  0.62611194    -0.02800
O529        O  0.24113089  0.82567897  0.15523001    -0.73200
O530        O  0.24233091  0.87800661  0.06508939    -0.74200
O531        O  0.28708931  0.85164562  0.11059064    -0.62800
O532        O  0.19620915  0.85240587  0.10935502    -0.71200
O533        O  0.19629634  0.89887583  0.14077182    -0.70700
O534        O  0.28687890  0.89900639  0.14007024    -0.62000
O535        O  0.24157264  0.92512336  0.09505859    -0.74500
O536        O  0.24184299  0.87271921  0.18533552    -0.73300
Cu537      Cu  0.24162274  0.85028296  0.10902410     1.04600
Cu538      Cu  0.24158867  0.90053341  0.14137582     1.04300
C539        C  0.24167523  0.84098458  0.18467762     0.93000
C540        C  0.24247809  0.90973356  0.06565947     0.92200
C541        C  0.30140134  0.87559107  0.12506053     0.84300
C542        C  0.18202872  0.87574798  0.12497699     0.90600
O543        O  0.49188279  0.87777655  0.18520283    -0.73200
O544        O  0.99305124  0.82572048  0.09503168    -0.74200
O545        O  0.03768497  0.85249132  0.14092045    -0.62800
O546        O  0.44703104  0.85093232  0.13956469    -0.71200
O547        O  0.44662734  0.89851358  0.11037349    -0.70700
O548        O  0.03747833  0.89897767  0.10963905    -0.62000
O549        O  0.99195026  0.87281676  0.06501483    -0.74500
O550        O  0.99234794  0.92492540  0.15525140    -0.73300
Cu551      Cu  0.99236994  0.85011867  0.14123789     1.04600
Cu552      Cu  0.99202618  0.90044866  0.10901655     1.04300
C553        C  0.99251733  0.90951420  0.18463492     0.93000
C554        C  0.99276717  0.84110366  0.06563087     0.92200
C555        C  0.05188070  0.87596966  0.12558598     0.84300
C556        C  0.43245490  0.87437380  0.12462761     0.90600
O557        O  0.24913126  0.57478763  0.40449069    -0.73200
O558        O  0.24658621  0.62703345  0.31415404    -0.74200
O559        O  0.29309336  0.60209936  0.35819114    -0.62800
O560        O  0.20253003  0.59963655  0.36037061    -0.71200
O561        O  0.20215097  0.64645228  0.39076396    -0.70700
O562        O  0.29263061  0.64943625  0.38777747    -0.62000
O563        O  0.24571778  0.67410595  0.34419224    -0.74500
O564        O  0.24912957  0.62199676  0.43430140    -0.73300
Cu565      Cu  0.24782284  0.59926295  0.35821974     1.04600
Cu566      Cu  0.24735357  0.64959984  0.39030477     1.04300
C567        C  0.24962236  0.59027370  0.43383454     0.93000
C568        C  0.24603430  0.65877413  0.31477693     0.92200
C569        C  0.30722541  0.62629236  0.37238785     0.84300
C570        C  0.18794158  0.62247604  0.37625521     0.90600
O571        O  0.49688643  0.62748224  0.43600253    -0.73200
O572        O  0.49747200  0.57519997  0.34573871    -0.74200
O573        O  0.04245193  0.60055655  0.39190105    -0.62800
O574        O  0.45194722  0.60185003  0.38984231    -0.71200
O575        O  0.45264790  0.64875143  0.35943539    -0.70700
O576        O  0.04325757  0.64819953  0.36272789    -0.62000
O577        O  0.49889324  0.62240241  0.31594321    -0.74500
O578        O  0.49708044  0.67461578  0.40602851    -0.73300
Cu579      Cu  0.49711589  0.59965847  0.39196772     1.04600
Cu580      Cu  0.49798267  0.65010431  0.35997152     1.04300
C581        C  0.49708536  0.65923063  0.43540690     0.93000
C582        C  0.49840736  0.59067097  0.31640447     0.92200
C583        C  0.05716895  0.62439809  0.37791877     0.84300
C584        C  0.43796262  0.62511902  0.37388895     0.90600
O585        O  0.25093453  0.82518462  0.34510786    -0.73200
O586        O  0.25352542  0.87731833  0.43549270    -0.74200
O587        O  0.20726731  0.85237002  0.39167046    -0.62800
O588        O  0.29736217  0.84988490  0.38915775    -0.71200
O589        O  0.29810797  0.89661668  0.35885238    -0.70700
O590        O  0.20702912  0.89946451  0.36187949    -0.62000
O591        O  0.25416289  0.92439711  0.40547443    -0.74500
O592        O  0.25090838  0.87234992  0.31523554    -0.73300
Cu593      Cu  0.25229782  0.84963449  0.39140382     1.04600
Cu594      Cu  0.25261311  0.89987788  0.35930593     1.04300
C595        C  0.25043312  0.84063034  0.31573757     0.93000
C596        C  0.25385716  0.90905474  0.43489101     0.92200
C597        C  0.19268890  0.87599543  0.37720050     0.84300
C598        C  0.31220918  0.87247684  0.37334860     0.90600
O599        O  0.00375270  0.87748171  0.31494737    -0.73200
O600        O  0.50329151  0.82558303  0.40537811    -0.74200
O601        O  0.45832085  0.84921440  0.35829905    -0.62800
O602        O  0.04870753  0.85371309  0.36209696    -0.71200
O603        O  0.04646394  0.90101611  0.39184333    -0.70700
O604        O  0.45592103  0.89715856  0.38696431    -0.62000
O605        O  0.50036569  0.87283848  0.43493066    -0.74500
O606        O  0.00189492  0.92475295  0.34463383    -0.73300
Cu607      Cu  0.00366980  0.84988158  0.35913036     1.04600
Cu608      Cu  0.00107981  0.90054803  0.39072483     1.04300
C609        C  0.00270174  0.90921046  0.31537486     0.93000
C610        C  0.50157714  0.84110193  0.43461607     0.92200
C611        C  0.44290841  0.87282820  0.37167381     0.84300
C612        C  0.06186330  0.87799058  0.37732751     0.90600
C613        C  0.25281113  0.92799648  0.46845234     0.02900
C614        C  0.24755862  0.91116103  0.00021278    -0.13300
C615        C  0.24477078  0.92846520  0.03203625     0.00400
C616        C  0.24525471  0.96339443  0.03158818    -0.11800
C617        C  0.25045576  0.98133369  0.00009635     0.02900
C618        C  0.25529532  0.96279953  0.46878490    -0.11200
H619        H  0.24639901  0.88432324  0.00021517     0.08500
H620        H  0.24137533  0.97617760  0.05608364     0.06000
H621        H  0.26055612  0.97498983  0.44430027     0.05900
C622        C  0.25653489  0.57222425  0.03129241     0.02900
C623        C  0.25667787  0.53727290  0.03123494    -0.13300
C624        C  0.25237518  0.51886882  0.99986150     0.00400
C625        C  0.24944128  0.53676071  0.46820603    -0.11800
C626        C  0.25118761  0.57162021  0.46753962     0.02900
C627        C  0.25415621  0.58914245  0.99923541    -0.11200
H628        H  0.26021242  0.52483780  0.05599980     0.08500
H629        H  0.24500896  0.52424784  0.44368615     0.06000
H630        H  0.25469351  0.61600396  0.99903229     0.05900
C631        C  0.25324522  0.67834632  0.21754246     0.02900
C632        C  0.25304376  0.71326021  0.21809912    -0.13300
C633        C  0.24821089  0.73118902  0.24966817     0.00400
C634        C  0.24461408  0.71261202  0.28104363    -0.11800
C635        C  0.24674860  0.67776335  0.28124107     0.02900
C636        C  0.25053234  0.66096652  0.24930153    -0.11200
H637        H  0.25694606  0.72602164  0.19360361     0.08500
H638        H  0.23990959  0.72480031  0.30567769     0.06000
H639        H  0.25147727  0.63411801  0.24918194     0.05900
C640        C  0.24884086  0.82190557  0.28207219     0.02900
C641        C  0.25054555  0.78704264  0.28152838    -0.13300
C642        C  0.24707216  0.76882980  0.24989326     0.00400
C643        C  0.24272134  0.78713015  0.21845110    -0.11800
C644        C  0.24300913  0.82205413  0.21824515     0.02900
C645        C  0.24553645  0.83907282  0.25024847    -0.11200
H646        H  0.25502521  0.77456821  0.30606686     0.08500
H647        H  0.23896311  0.77464817  0.19375753     0.06000
H648        H  0.24506151  0.86593613  0.25037498     0.05900
C649        C  0.99451815  0.92826063  0.21822169     0.02900
C650        C  0.49438004  0.96318774  0.21865738    -0.13300
C651        C  0.49930948  0.98123099  0.25014463     0.00400
C652        C  0.50326902  0.96278887  0.28150398    -0.11800
C653        C  0.00146425  0.92796538  0.28180911     0.02900
C654        C  0.99763591  0.91100597  0.24999994    -0.11200
H655        H  0.49025521  0.97588620  0.19416292     0.08500
H656        H  0.50814156  0.97508573  0.30603701     0.06000
H657        H  0.99702490  0.88414376  0.24999983     0.05900
C658        C  0.49951221  0.57192608  0.28273423     0.02900
C659        C  0.50310745  0.58898941  0.25090433    -0.13300
C660        C  0.50546320  0.57187162  0.21894637     0.00400
C661        C  0.50530420  0.53695354  0.21920245    -0.11800
C662        C  0.50076778  0.51878736  0.25065777     0.02900
C663        C  0.49731398  0.53710280  0.28222382    -0.11200
H664        H  0.50395691  0.61584152  0.25098721     0.08500
H665        H  0.50894760  0.52436968  0.19455614     0.06000
H666        H  0.49261449  0.52473957  0.30675296     0.05900
C667        C  0.49820550  0.67814338  0.46893763     0.02900
C668        C  0.50169684  0.66114693  0.00095112    -0.13300
C669        C  0.50438490  0.67836854  0.03279279     0.00400
C670        C  0.50445360  0.71333120  0.03233962    -0.11800
C671        C  0.49981924  0.73141397  0.00076004     0.02900
C672        C  0.49644472  0.71301023  0.46919600    -0.11200
H673        H  0.50243691  0.63428908  0.00095423     0.08500
H674        H  0.50827818  0.72597309  0.05691490     0.06000
H675        H  0.49184498  0.72528844  0.44458405     0.05900
C676        C  0.99420958  0.82227841  0.03207476     0.02900
C677        C  0.49437855  0.78734876  0.03191850    -0.13300
C678        C  0.49863299  0.76908501  0.00049114     0.00400
C679        C  0.50246723  0.78745631  0.46882053    -0.11800
C680        C  0.00044535  0.82234909  0.46831305     0.02900
C681        C  0.99625615  0.83935914  0.00006958    -0.11200
H682        H  0.49095885  0.77484977  0.05665046     0.08500
H683        H  0.50695023  0.77503847  0.44426730     0.06000
H684        H  0.99543125  0.86621410  0.99995090     0.05900
O685        O  0.30206656  0.65002481  0.10948406    -0.73200
O686        O  0.21157524  0.64876595  0.10953307    -0.74200
O687        O  0.25631365  0.67530732  0.15457796    -0.62800
O688        O  0.25707635  0.62299777  0.06422297    -0.71200
O689        O  0.25848889  0.57589964  0.09419820    -0.70700
O690        O  0.25596987  0.62802827  0.18428108    -0.62000
O691        O  0.21203861  0.60076759  0.13821531    -0.74500
O692        O  0.30263625  0.60340270  0.14019604    -0.73300
Cu693      Cu  0.25679392  0.65087355  0.10833041     1.04600
Cu694      Cu  0.25736932  0.60040018  0.14026468     1.04300
C695        C  0.31676436  0.62722735  0.12530255     0.93000
C696        C  0.19756763  0.62470684  0.12403013     0.92200
C697        C  0.25553198  0.65975835  0.18387050     0.84300
C698        C  0.25769875  0.59124189  0.06480981     0.90600
O699        O  0.50583525  0.62777396  0.06585220    -0.73200
O700        O  0.50696743  0.57527803  0.15595269    -0.74200
O701        O  0.46136461  0.60196076  0.11212600    -0.62800
O702        O  0.05163062  0.60076586  0.10960462    -0.71200
O703        O  0.05305704  0.64748033  0.13993017    -0.70700
O704        O  0.46225800  0.64947157  0.14155164    -0.62000
O705        O  0.50770445  0.62240469  0.18589621    -0.74500
O706        O  0.50740342  0.67488698  0.09576393    -0.73300
Cu707      Cu  0.50646572  0.59986203  0.10981080     1.04600
Cu708      Cu  0.50771031  0.65019041  0.14186814     1.04300
C709        C  0.50621312  0.65952335  0.06639639     0.93000
C710        C  0.50706934  0.59067603  0.18534214     0.92200
C711        C  0.44751141  0.62571799  0.12735933     0.84300
C712        C  0.06682027  0.62370608  0.12442841     0.90600
C713        C  0.14900118  0.59681530  0.11133238    -0.09400
C714        C  0.16436991  0.62453977  0.12433526     0.06800
C715        C  0.14781606  0.65161438  0.13740513    -0.03200
C716        C  0.11625198  0.65067174  0.13716328    -0.06800
C717        C  0.10045999  0.62308013  0.12377216     0.05900
C718        C  0.11739631  0.59586329  0.11053198    -0.02600
Br719      Br  0.09979889  0.55635638  0.09090923    -0.02300
H720        H  0.16172804  0.57591702  0.10120650     0.09800
H721        H  0.10407421  0.67177918  0.14763764     0.07900
Br722      Br  0.16725702  0.68963160  0.15778525    -0.02800
C723        C  0.36578376  0.59800525  0.13276502    -0.09400
C724        C  0.35029790  0.62785428  0.12622536     0.06800
C725        C  0.36732714  0.65723716  0.12123917    -0.03200
C726        C  0.39892091  0.65599074  0.12232170    -0.07600
C727        C  0.41419412  0.62599341  0.12800488     0.05900
C728        C  0.39732891  0.59684098  0.13368659    -0.02600
Br729      Br  0.41592671  0.55507870  0.14496065    -0.02300
H730        H  0.35331988  0.57524518  0.13709593     0.09800
H731        H  0.41168030  0.67860180  0.11820570     0.07900
Br732      Br  0.34950125  0.70022092  0.11414424    -0.02800
C733        C  0.14363132  0.90611664  0.37127002    -0.09400
C734        C  0.15909247  0.87628085  0.37827472     0.06800
C735        C  0.14191118  0.84744916  0.38578051    -0.03200
C736        C  0.11039530  0.84896947  0.38561429    -0.07600
C737        C  0.09514885  0.87864974  0.37852930     0.05900
C738        C  0.11199170  0.90754782  0.37149251    -0.02600
Br739      Br  0.09310560  0.94899168  0.35964015    -0.02300
H740        H  0.15616571  0.92852532  0.36543966     0.09800
H741        H  0.09760567  0.82661358  0.39101954     0.07900
Br742      Br  0.15908775  0.80449924  0.39506834    -0.02800
C743        C  0.36155559  0.89741557  0.35597226    -0.09400
C744        C  0.34583767  0.87095784  0.37182330     0.06800
C745        C  0.36285632  0.84403656  0.38569971    -0.03200
C746        C  0.39445542  0.84480209  0.38441586    -0.07600
C747        C  0.40974931  0.87187812  0.36991644     0.05900
C748        C  0.39313706  0.89802047  0.35495209    -0.02600
Br749      Br  0.41261810  0.93431104  0.33139528    -0.02300
H750        H  0.34932176  0.91800010  0.34444794     0.09800
H751        H  0.40724057  0.82444573  0.39564982     0.07900
Br752      Br  0.34543353  0.80526570  0.40711287    -0.02800
C753        C  0.10574439  0.59384810  0.37397166    -0.09400
C754        C  0.09051780  0.62403985  0.37880012     0.06800
C755        C  0.10747605  0.65318261  0.38414739    -0.03200
C756        C  0.13901710  0.65186489  0.38346146    -0.07600
C757        C  0.15442741  0.62186683  0.37752132     0.05900
C758        C  0.13734852  0.59244600  0.37318904    -0.02600
Br759      Br  0.15518941  0.54927970  0.36747290    -0.02300
H760        H  0.09294920  0.57119425  0.37028946     0.09800
H761        H  0.15154123  0.67465404  0.38738452     0.07900
Br762      Br  0.08905029  0.69519731  0.39458924    -0.02800
C763        C  0.35622726  0.59644876  0.37052910    -0.09400
C764        C  0.34067567  0.62681311  0.37162082     0.06800
C765        C  0.35749687  0.65661414  0.37204278    -0.03200
C766        C  0.38909820  0.65541761  0.37240326    -0.07600
C767        C  0.40457831  0.62500555  0.37243370     0.05900
C768        C  0.38778701  0.59526676  0.37091991    -0.02600
Br769      Br  0.40631196  0.55226013  0.36732651    -0.02300
H770        H  0.34375975  0.57333339  0.36969141     0.09800
H771        H  0.40165320  0.67848359  0.37300560     0.07900
Br772      Br  0.33908917  0.69977941  0.37032588    -0.02800
C773        C  0.13329678  0.87118543  0.15652357    -0.09400
C774        C  0.14885385  0.87604338  0.12486376     0.06800
C775        C  0.13251284  0.88174414  0.09371504    -0.03200
C776        C  0.10088670  0.88210301  0.09449983    -0.07600
C777        C  0.08520188  0.87635884  0.12600334     0.05900
C778        C  0.10167283  0.87111879  0.15730249    -0.02600
Br779      Br  0.08220513  0.86589218  0.20208808    -0.02300
H780        H  0.14580791  0.86733789  0.18069217     0.09800
H781        H  0.08849702  0.88648587  0.07035436     0.07900
Br782      Br  0.15256632  0.89050938  0.04995094    -0.02800
C783        C  0.35051126  0.84554941  0.12234049    -0.09400
C784        C  0.33494664  0.87587922  0.12462471     0.06800
C785        C  0.35187318  0.90561875  0.12601215    -0.03200
C786        C  0.38347072  0.90439633  0.12575856    -0.07600
C787        C  0.39898203  0.87405518  0.12424756     0.05900
C788        C  0.38213338  0.84436389  0.12215415    -0.02600
Br789      Br  0.40066173  0.80153458  0.11677476    -0.02300
H790        H  0.33801727  0.82248542  0.12080039     0.09800
H791        H  0.39603043  0.92744035  0.12697588     0.07900
Br792      Br  0.33371741  0.94894703  0.12637804    -0.02800
O793        O  0.24146118  0.82581258  0.65510698    -0.73200
O794        O  0.24270190  0.87812878  0.56506036    -0.74200
O795        O  0.28741775  0.85181588  0.61055382    -0.62800
O796        O  0.19653970  0.85251710  0.60924188    -0.71200
O797        O  0.19659804  0.89897562  0.64067724    -0.70700
O798        O  0.28718255  0.89918523  0.64002168    -0.62000
O799        O  0.24190164  0.92525569  0.59501831    -0.74500
O800        O  0.24215662  0.87284943  0.68522581    -0.73300
Cu801      Cu  0.24195881  0.85041926  0.60894734     1.04600
Cu802      Cu  0.24189249  0.90067115  0.64130439     1.04300
C803        C  0.24201597  0.84111659  0.68454908     0.93000
C804        C  0.24288336  0.90985047  0.56563532     0.92200
C805        C  0.30171565  0.87577185  0.62502327     0.84300
C806        C  0.18234336  0.87584311  0.62487275     0.90600
O807        O  0.49217652  0.87794079  0.68520494    -0.73200
O808        O  0.99338262  0.82576175  0.59508037    -0.74200
O809        O  0.03799217  0.85259588  0.64096420    -0.62800
O810        O  0.44732935  0.85106631  0.63957490    -0.71200
O811        O  0.44694756  0.89862528  0.61034349    -0.70700
O812        O  0.03779327  0.89907917  0.60967683    -0.62000
O813        O  0.99231961  0.87284960  0.56504990    -0.74500
O814        O  0.99263633  0.92509015  0.65525086    -0.73300
Cu815      Cu  0.99267375  0.85023373  0.64126871     1.04600
Cu816      Cu  0.99234685  0.90054923  0.60902486     1.04300
C817        C  0.99280385  0.90968469  0.68464010     0.93000
C818        C  0.99316170  0.84113401  0.56567163     0.92200
C819        C  0.05219144  0.87606500  0.62561665     0.84300
C820        C  0.43276360  0.87450725  0.62462039     0.90600
O821        O  0.24887041  0.57508620  0.90442328    -0.73200
O822        O  0.24655658  0.62728846  0.81407956    -0.74200
O823        O  0.29294986  0.60232341  0.85822998    -0.62800
O824        O  0.20238270  0.60004895  0.86019372    -0.71200
O825        O  0.20200228  0.64686059  0.89058985    -0.70700
O826        O  0.29248649  0.64968806  0.88777152    -0.62000
O827        O  0.24567374  0.67438643  0.84407389    -0.74500
O828        O  0.24889797  0.62229230  0.93423733    -0.73300
Cu829      Cu  0.24767490  0.59956297  0.85815364     1.04600
Cu830      Cu  0.24721136  0.64991249  0.89021648     1.04300
C831        C  0.24935724  0.59056383  0.93376956     0.93000
C832        C  0.24603320  0.65902574  0.81467353     0.92200
C833        C  0.30708011  0.62651699  0.87242809     0.84300
C834        C  0.18779053  0.62291229  0.87603588     0.90600
O835        O  0.49684704  0.62751540  0.93603041    -0.73200
O836        O  0.49729775  0.57554988  0.84559857    -0.74200
O837        O  0.04235562  0.60085861  0.89170061    -0.62800
O838        O  0.45183720  0.60203978  0.88990472    -0.71200
O839        O  0.45246072  0.64898624  0.85957778    -0.70700
O840        O  0.04304776  0.64858562  0.86267759    -0.62000
O841        O  0.49865945  0.62280827  0.81589868    -0.74500
O842        O  0.49691021  0.67472338  0.90618359    -0.73300
Cu843      Cu  0.49701655  0.59987281  0.89189657     1.04600
Cu844      Cu  0.49777903  0.65039324  0.86002894     1.04300
C845        C  0.49698251  0.65925851  0.93551886     0.93000
C846        C  0.49818727  0.59107318  0.81629572     0.92200
C847        C  0.05701545  0.62477219  0.87776788     0.84300
C848        C  0.43781200  0.62532728  0.87402621     0.90600
O849        O  0.25145913  0.82531892  0.84490141    -0.73200
O850        O  0.25291230  0.87737737  0.93533727    -0.74200
O851        O  0.20713005  0.85149363  0.89117196    -0.62800
O852        O  0.29736905  0.85103101  0.88911223    -0.71200
O853        O  0.29735130  0.89773926  0.85862073    -0.70700
O854        O  0.20646348  0.89869839  0.86152077    -0.62000
O855        O  0.25305916  0.92449174  0.90536649    -0.74500
O856        O  0.25067881  0.87249855  0.81505341    -0.73300
Cu857      Cu  0.25227070  0.84974197  0.89120206     1.04600
Cu858      Cu  0.25191520  0.90003090  0.85911573     1.04300
C859        C  0.25068685  0.84077308  0.81554744     0.93000
C860        C  0.25292607  0.90911330  0.93477316     0.92200
C861        C  0.19235874  0.87488923  0.87651194     0.84300
C862        C  0.31178588  0.87384289  0.87306687     0.90600
O863        O  0.00332412  0.87750618  0.81488297    -0.73200
O864        O  0.50193603  0.82547865  0.90524845    -0.74200
O865        O  0.45739678  0.85067301  0.85835303    -0.62800
O866        O  0.04787594  0.85225478  0.86161640    -0.71200
O867        O  0.04667089  0.89956027  0.89141877    -0.70700
O868        O  0.45612294  0.89840878  0.88740755    -0.62000
O869        O  0.50026724  0.87274786  0.93490058    -0.74500
O870        O  0.00244045  0.92474601  0.84467861    -0.73300
Cu871      Cu  0.00272803  0.84984542  0.85899044     1.04600
Cu872      Cu  0.00134390  0.90046199  0.89073631     1.04300
C873        C  0.00284872  0.90924841  0.81538094     0.93000
C874        C  0.50078177  0.84099445  0.93453359     0.92200
C875        C  0.44249687  0.87461059  0.87190621     0.84300
C876        C  0.06156511  0.87626811  0.87666624     0.90600
C877        C  0.25183677  0.92800499  0.96837237     0.02900
C878        C  0.24830260  0.91120301  0.50026648    -0.13300
C879        C  0.24536466  0.92854542  0.53203780     0.00400
C880        C  0.24592649  0.96346211  0.53157420    -0.11800
C881        C  0.25134031  0.98135413  0.50011487     0.02900
C882        C  0.25424216  0.96281006  0.96872323    -0.11200
H883        H  0.24706313  0.88436924  0.50028737     0.08500
H884        H  0.24191871  0.97627639  0.55602460     0.06000
H885        H  0.25936823  0.97502112  0.94421401     0.05900
C886        C  0.25677930  0.57200266  0.53136940     0.02900
C887        C  0.25695998  0.53704429  0.53132366    -0.13300
C888        C  0.25270808  0.51862528  0.49993682     0.00400
C889        C  0.24911211  0.53701767  0.96812979    -0.11800
C890        C  0.25089647  0.57188532  0.96747055     0.02900
C891        C  0.25440565  0.58889654  0.49929808    -0.11200
H892        H  0.26047751  0.52462101  0.55609950     0.08500
H893        H  0.24466579  0.52450919  0.94361095     0.06000
H894        H  0.25491142  0.61575857  0.49907732     0.05900
C895        C  0.25343049  0.67847006  0.71743275     0.02900
C896        C  0.25336043  0.71338389  0.71796119    -0.13300
C897        C  0.24853774  0.73134673  0.74951023     0.00400
C898        C  0.24481419  0.71281575  0.78088727    -0.11800
C899        C  0.24683917  0.67796850  0.78111990     0.02900
C900        C  0.25061216  0.66112844  0.74920356    -0.11200
H901        H  0.25734922  0.72611814  0.69346693     0.08500
H902        H  0.24009718  0.72504291  0.80549676     0.06000
H903        H  0.25146238  0.63427614  0.74911175     0.05900
C904        C  0.24925608  0.82204559  0.78189132     0.02900
C905        C  0.25099944  0.78718823  0.78135076    -0.13300
C906        C  0.24749706  0.76897726  0.74972085     0.00400
C907        C  0.24314404  0.78726656  0.71828190    -0.11800
C908        C  0.24340048  0.82218562  0.71808811     0.02900
C909        C  0.24592238  0.83920668  0.75007931    -0.11200
H910        H  0.25548267  0.77471389  0.80588906     0.08500
H911        H  0.23937951  0.77477802  0.69359200     0.06000
H912        H  0.24540485  0.86606898  0.75020577     0.05900
C913        C  0.99478511  0.92841983  0.71824834     0.02900
C914        C  0.49447706  0.96333781  0.71876000    -0.13300
C915        C  0.49934962  0.98134864  0.75029081     0.00400
C916        C  0.50339472  0.96289290  0.78161538    -0.11800
C917        C  0.00173018  0.92806534  0.78184833     0.02900
C918        C  0.99800427  0.91114077  0.74999610    -0.11200
H919        H  0.49025292  0.97606302  0.69429973     0.08500
H920        H  0.50815787  0.97520730  0.80617225     0.06000
H921        H  0.99751506  0.88427565  0.74994205     0.05900
C922        C  0.49927854  0.57236460  0.78260016     0.02900
C923        C  0.50300179  0.58943654  0.75080036    -0.13300
C924        C  0.50540008  0.57231844  0.71884683     0.00400
C925        C  0.50516281  0.53740206  0.71906777    -0.11800
C926        C  0.50053281  0.51923488  0.75048400     0.02900
C927        C  0.49699393  0.53754530  0.78204681    -0.11200
H928        H  0.50392498  0.61628629  0.75090350     0.08500
H929        H  0.50883560  0.52480932  0.69443106     0.06000
H930        H  0.49218669  0.52517730  0.80654644     0.05900
C931        C  0.49806977  0.67809217  0.96908651     0.02900
C932        C  0.50178656  0.66121338  0.50081687    -0.13300
C933        C  0.50459532  0.67845154  0.53262869     0.00400
C934        C  0.50479635  0.71339624  0.53216437    -0.11800
C935        C  0.50017756  0.73147995  0.50060866     0.02900
C936        C  0.49616848  0.71293243  0.96936326    -0.11200
H937        H  0.50242283  0.63435258  0.50085601     0.08500
H938        H  0.50873029  0.72604253  0.55671821     0.06000
H939        H  0.49150205  0.72517455  0.94475543     0.05900
C940        C  0.99473261  0.82231302  0.53210634     0.02900
C941        C  0.49476908  0.78737822  0.53187751    -0.13300
C942        C  0.49913507  0.76914777  0.50043182     0.00400
C943        C  0.50172833  0.78736852  0.96881053    -0.11800
C944        C  0.99960696  0.82225496  0.96824538     0.02900
C945        C  0.99701712  0.83942399  0.50014181    -0.11200
H946        H  0.49114535  0.77484828  0.55655738     0.08500
H947        H  0.50618418  0.77496484  0.94424828     0.06000
H948        H  0.99627842  0.86628126  0.50005188     0.05900
O949        O  0.30220633  0.65006369  0.60941899    -0.73200
O950        O  0.21172673  0.64865371  0.60950590    -0.74200
O951        O  0.25645000  0.67534442  0.65446645    -0.62800
O952        O  0.25724488  0.62282922  0.56422688    -0.71200
O953        O  0.25871669  0.57578309  0.59428653    -0.70700
O954        O  0.25615227  0.62811099  0.68425262    -0.62000
O955        O  0.21222904  0.60070130  0.63827298    -0.74500
O956        O  0.30283906  0.60349623  0.64022607    -0.73300
Cu957      Cu  0.25693843  0.65081629  0.60827166     1.04600
Cu958      Cu  0.25757219  0.60039822  0.64030199     1.04300
C959        C  0.31693220  0.62733864  0.62531592     0.93000
C960        C  0.19773790  0.62461723  0.62406742     0.92200
C961        C  0.25569800  0.65983963  0.68378687     0.84300
C962        C  0.25790804  0.59107203  0.56486774     0.90600
O963        O  0.50599696  0.62792011  0.56573993    -0.73200
O964        O  0.50704137  0.57566847  0.65589702    -0.74200
O965        O  0.46149594  0.60233188  0.61206296    -0.62800
O966        O  0.05176072  0.60095603  0.60954678    -0.71200
O967        O  0.05324441  0.64770088  0.63981577    -0.70700
O968        O  0.46244336  0.64989230  0.64139808    -0.62000
O969        O  0.50781931  0.62282642  0.68579124    -0.74500
O970        O  0.50764256  0.67508051  0.59556991    -0.73300
Cu971      Cu  0.50659001  0.60013918  0.60973967     1.04600
Cu972      Cu  0.50789770  0.65051502  0.64171722     1.04300
C973        C  0.50641822  0.65966266  0.56623767     0.93000
C974        C  0.50712266  0.59110079  0.68526094     0.92200
C975        C  0.44767113  0.62612146  0.62727714     0.84300
C976        C  0.06697986  0.62387754  0.62436481     0.90600
C977        C  0.14912914  0.59677811  0.61142024    -0.09400
C978        C  0.16453842  0.62447263  0.62442688     0.06800
C979        C  0.14802195  0.65157758  0.63749467    -0.03200
C980        C  0.11645542  0.65071445  0.63719999    -0.06800
C981        C  0.10062228  0.62316591  0.62377473     0.05900
C982        C  0.11752141  0.59589931  0.61058311    -0.02600
Br983      Br  0.09986444  0.55641892  0.59097757    -0.02300
H984        H  0.16182607  0.57585265  0.60130596     0.09800
H985        H  0.10430854  0.67184969  0.64766015     0.07900
Br986      Br  0.16751856  0.68953202  0.65793862    -0.02800
C987        C  0.36600711  0.59827308  0.63288387    -0.09400
C988        C  0.35045989  0.62807161  0.62630560     0.06800
C989        C  0.36742196  0.65750873  0.62135730    -0.03200
C990        C  0.39902269  0.65633645  0.62237390    -0.07600
C991        C  0.41435634  0.62636976  0.62802640     0.05900
C992        C  0.39755099  0.59719498  0.63381085    -0.02600
Br993      Br  0.41623481  0.55552835  0.64528493    -0.02300
H994        H  0.35359307  0.57548623  0.63724953     0.09800
H995        H  0.41173523  0.67897727  0.61824780     0.07900
Br996      Br  0.34948119  0.70046839  0.61447886    -0.02800
C997        C  0.14321086  0.90460320  0.87105410    -0.09400
C998        C  0.15879549  0.87467754  0.87700466     0.06800
C999        C  0.14180392  0.84538619  0.88278036    -0.03200
C1000       C  0.11024931  0.84671533  0.88273357    -0.07600
C1001       C  0.09487216  0.87663604  0.87715493     0.05900
C1002       C  0.11160655  0.90580439  0.87106787    -0.02600
Br1003     Br  0.09267255  0.94742658  0.86001296    -0.02300
H1004       H  0.15563377  0.92729901  0.86622331     0.09800
H1005       H  0.09757090  0.82408261  0.88707616     0.07900
Br1006     Br  0.15946854  0.80220479  0.88913201    -0.02800
C1007       C  0.36096703  0.90210200  0.86236086    -0.09400
C1008       C  0.34533223  0.87292948  0.87141491     0.06800
C1009       C  0.36227935  0.84381313  0.87853858    -0.03200
C1010       C  0.39385909  0.84488360  0.87781122    -0.07600
C1011       C  0.40923658  0.87437593  0.87024637     0.05900
C1012       C  0.39255473  0.90301191  0.86167411    -0.02600
Br1013     Br  0.41165898  0.94344110  0.84684093    -0.02300
H1014       H  0.34862639  0.92453652  0.85603092     0.09800
H1015       H  0.40654071  0.82258429  0.88384181     0.07900
Br1016     Br  0.34450259  0.80131526  0.88850808    -0.02800
C1017       C  0.10559886  0.59430651  0.87363161    -0.09400
C1018       C  0.09036341  0.62447060  0.87857187     0.06800
C1019       C  0.10731008  0.65362173  0.88394576    -0.03200
C1020       C  0.13885609  0.65231807  0.88323769    -0.07600
C1021       C  0.15427293  0.62233131  0.87723311     0.05900
C1022       C  0.13719660  0.59292218  0.87280525    -0.02600
Br1023     Br  0.15502031  0.54977710  0.86687216    -0.02300
H1024       H  0.09281163  0.57165409  0.86989599     0.09800
H1025       H  0.15137790  0.67510114  0.88721073     0.07900
Br1026     Br  0.08886430  0.69561691  0.89445473    -0.02800
C1027       C  0.35607110  0.59664778  0.87081915    -0.09400
C1028       C  0.34052629  0.62701812  0.87171642     0.06800
C1029       C  0.35734659  0.65681681  0.87198381    -0.03200
C1030       C  0.38894561  0.65562125  0.87241661    -0.07600
C1031       C  0.40442486  0.62520642  0.87262214     0.05900
C1032       C  0.38762993  0.59546423  0.87124016    -0.02600
Br1033     Br  0.40614365  0.55244394  0.86781833    -0.02300
H1034       H  0.34359779  0.57353298  0.87008704     0.09800
H1035       H  0.40149755  0.67869193  0.87289159     0.07900
Br1036     Br  0.33893114  0.69995735  0.86986997    -0.02800
C1037       C  0.13363137  0.87131085  0.65646870    -0.09400
C1038       C  0.14916518  0.87610800  0.62478105     0.06800
C1039       C  0.13279689  0.88173736  0.59363577    -0.03200
C1040       C  0.10117108  0.88210530  0.59445843    -0.07600
C1041       C  0.08551231  0.87643283  0.62599440     0.05900
C1042       C  0.10200772  0.87124490  0.65728333    -0.02600
Br1043     Br  0.08257098  0.86609420  0.70209648    -0.02300
H1044       H  0.14616107  0.86751302  0.68063311     0.09800
H1045       H  0.08876049  0.88644068  0.57031749     0.07900
Br1046     Br  0.15280739  0.89039954  0.54982213    -0.02800
C1047       C  0.35081306  0.84572603  0.62235776    -0.09400
C1048       C  0.33525780  0.87606187  0.62460553     0.06800
C1049       C  0.35218919  0.90579879  0.62596394    -0.03200
C1050       C  0.38378836  0.90456370  0.62572640    -0.07600
C1051       C  0.39929021  0.87421247  0.62424418     0.05900
C1052       C  0.38243168  0.84452859  0.62217263    -0.02600
Br1053     Br  0.40093929  0.80168993  0.61680506    -0.02300
H1054       H  0.33831337  0.82266430  0.62083616     0.09800
H1055       H  0.39635577  0.92760362  0.62692056     0.07900
Br1056     Br  0.33403397  0.94913034  0.62624222    -0.02800
O1057       O  0.74212991  0.32548750  0.15543561    -0.73200
O1058       O  0.74327282  0.37794052  0.06547827    -0.74200
O1059       O  0.78803607  0.35188643  0.11106044    -0.62800
O1060       O  0.69724611  0.35178336  0.10944788    -0.71200
O1061       O  0.69689785  0.39820764  0.14093680    -0.70700
O1062       O  0.78755968  0.39925798  0.14052952    -0.62000
O1063       O  0.74212736  0.42504681  0.09545039    -0.74500
O1064       O  0.74251646  0.37249705  0.18560998    -0.73300
Cu1065     Cu  0.74263316  0.35013841  0.10931083     1.04600
Cu1066     Cu  0.74220703  0.40036585  0.14170639     1.04300
C1067       C  0.74242474  0.34076490  0.18489886     0.93000
C1068       C  0.74320045  0.40966810  0.06605792     0.92200
C1069       C  0.80221089  0.37591147  0.12555129     0.84300
C1070       C  0.68284635  0.37493103  0.12510205     0.90600
O1071       O  0.99266817  0.37756471  0.18580619    -0.73200
O1072       O  0.49349540  0.32552885  0.09549431    -0.74200
O1073       O  0.53830544  0.35171463  0.14148224    -0.62800
O1074       O  0.94770044  0.35112302  0.14008787    -0.71200
O1075       O  0.94756147  0.39871065  0.11091233    -0.70700
O1076       O  0.53847253  0.39824517  0.11027419    -0.62000
O1077       O  0.49275158  0.37271421  0.06561586    -0.74500
O1078       O  0.49344063  0.42466305  0.15580961    -0.73300
Cu1079     Cu  0.49298893  0.34985996  0.14176883     1.04600
Cu1080     Cu  0.49300941  0.40022423  0.10960372     1.04300
C1081       C  0.49342722  0.40927183  0.18519871     0.93000
C1082       C  0.49331666  0.34100359  0.06614201     0.92200
C1083       C  0.55269003  0.37502953  0.12612248     0.84300
C1084       C  0.93325465  0.37464243  0.12512939     0.90600
O1085       O  0.74893141  0.07494416  0.40463561    -0.73200
O1086       O  0.74636448  0.12678657  0.31416898    -0.74200
O1087       O  0.79289654  0.10198257  0.35822904    -0.62800
O1088       O  0.70234727  0.09960693  0.36048998    -0.71200
O1089       O  0.70199239  0.14647842  0.39078832    -0.70700
O1090       O  0.79248002  0.14939905  0.38766564    -0.62000
O1091       O  0.74550438  0.17392379  0.34410456    -0.74500
O1092       O  0.74899645  0.12222393  0.43433595    -0.73300
Cu1093     Cu  0.74762198  0.09919775  0.35830826     1.04600
Cu1094     Cu  0.74719335  0.14961617  0.39026142     1.04300
C1095       C  0.74945627  0.09050903  0.43392765     0.93000
C1096       C  0.74579096  0.15852203  0.31473634     0.92200
C1097       C  0.80705639  0.12620167  0.37233530     0.84300
C1098       C  0.68777367  0.12247584  0.37633902     0.90600
O1099       O  0.99667749  0.12730072  0.43595502    -0.73200
O1100       O  0.99741459  0.07515980  0.34555983    -0.74200
O1101       O  0.54230176  0.10048253  0.39185066    -0.62800
O1102       O  0.95179601  0.10170672  0.38964208    -0.71200
O1103       O  0.95250749  0.14864953  0.35930706    -0.70700
O1104       O  0.54311292  0.14818558  0.36278848    -0.62000
O1105       O  0.99886419  0.12240236  0.31584295    -0.74500
O1106       O  0.99684885  0.17448934  0.40608185    -0.73300
Cu1107     Cu  0.99697366  0.09955989  0.39184438     1.04600
Cu1108     Cu  0.99784285  0.15005711  0.35994518     1.04300
C1109       C  0.99686196  0.15905011  0.43543420     0.93000
C1110       C  0.99839469  0.09066488  0.31624712     0.92200
C1111       C  0.55701910  0.12437070  0.37795680     0.84300
C1112       C  0.93781640  0.12498964  0.37370226     0.90600
O1113       O  0.75083976  0.32463052  0.34532848    -0.73200
O1114       O  0.75324241  0.37676157  0.43576186    -0.74200
O1115       O  0.70688456  0.35054756  0.39239993    -0.62800
O1116       O  0.79724891  0.35050270  0.38868306    -0.71200
O1117       O  0.79637795  0.39782950  0.35895002    -0.70700
O1118       O  0.70570163  0.39756002  0.36254961    -0.62000
O1119       O  0.75231244  0.42387706  0.40579219    -0.74500
O1120       O  0.74982167  0.37187904  0.31560422    -0.73300
Cu1121     Cu  0.75211468  0.34901033  0.39162161     1.04600
Cu1122     Cu  0.75104213  0.39941460  0.35967443     1.04300
C1123       C  0.74994575  0.34015256  0.31601822     0.93000
C1124       C  0.75289483  0.40851307  0.43517930     0.92200
C1125       C  0.69181632  0.37385750  0.37799415     0.84300
C1126       C  0.81111210  0.37396770  0.37297246     0.90600
O1127       O  0.50286511  0.37756616  0.31563998    -0.73200
O1128       O  0.00069591  0.32562910  0.40585756    -0.74200
O1129       O  0.95640206  0.35201574  0.35916901    -0.62800
O1130       O  0.54708482  0.35144885  0.36240956    -0.71200
O1131       O  0.54650204  0.39928194  0.39136623    -0.70700
O1132       O  0.95607823  0.39885518  0.38954899    -0.62000
O1133       O  0.00072644  0.37280431  0.43574311    -0.74500
O1134       O  0.50187079  0.42481833  0.34539243    -0.73300
Cu1135     Cu  0.50180484  0.35001266  0.35971200     1.04600
Cu1136     Cu  0.50128360  0.40052338  0.39160465     1.04300
C1137       C  0.50241081  0.40929178  0.31609164     0.93000
C1138       C  0.00047472  0.34104930  0.43521457     0.92200
C1139       C  0.94184161  0.37577497  0.37364051     0.84300
C1140       C  0.56104280  0.37550387  0.37705647     0.90600
C1141       C  0.75223117  0.42748965  0.46872534     0.02900
C1142       C  0.74792319  0.41098087  0.00065086    -0.13300
C1143       C  0.74539637  0.42837871  0.03242374     0.00400
C1144       C  0.74597200  0.46331491  0.03187104    -0.11800
C1145       C  0.75096976  0.48118745  0.00025905     0.02900
C1146       C  0.75479365  0.46229798  0.46894965    -0.11200
H1147       H  0.74667503  0.38414745  0.00073003     0.08500
H1148       H  0.74229595  0.47611975  0.05638784     0.06000
H1149       H  0.75975570  0.47438947  0.44433533     0.05900
C1150       C  0.75646959  0.07218483  0.03137390     0.02900
C1151       C  0.75644189  0.03723206  0.03126797    -0.13300
C1152       C  0.75185893  0.01893374  0.99988902     0.00400
C1153       C  0.74921293  0.03708787  0.46824928    -0.11800
C1154       C  0.75105523  0.07191985  0.46761791     0.02900
C1155       C  0.75397374  0.08916079  0.99936546    -0.11200
H1156       H  0.76007507  0.02469627  0.05596438     0.08500
H1157       H  0.74458824  0.02456007  0.44377680     0.06000
H1158       H  0.75466934  0.11601841  0.99917315     0.05900
C1159       C  0.75323349  0.17807336  0.21758006     0.02900
C1160       C  0.75301085  0.21298050  0.21815225    -0.13300
C1161       C  0.74803489  0.23088117  0.24970205     0.00400
C1162       C  0.74426496  0.21228358  0.28101687    -0.11800
C1163       C  0.74648093  0.17745543  0.28120595     0.02900
C1164       C  0.75041211  0.16066755  0.24930015    -0.11200
H1165       H  0.75703070  0.22574473  0.19368765     0.08500
H1166       H  0.73941284  0.22443553  0.30562884     0.06000
H1167       H  0.75140759  0.13382037  0.24918211     0.05900
C1168       C  0.74861844  0.32150553  0.28230863     0.02900
C1169       C  0.75023936  0.28664688  0.28171346    -0.13300
C1170       C  0.74699909  0.26850959  0.24999973     0.00400
C1171       C  0.74302538  0.28687972  0.21854961    -0.11800
C1172       C  0.74345109  0.32179240  0.21842763     0.02900
C1173       C  0.74568447  0.33874549  0.25048813    -0.11200
H1174       H  0.75446684  0.27412730  0.30628278     0.08500
H1175       H  0.73944660  0.27447138  0.19378168     0.06000
H1176       H  0.74529381  0.36561011  0.25065812     0.05900
C1177       C  0.49526027  0.42808460  0.21876223     0.02900
C1178       C  0.99508970  0.46304285  0.21911061    -0.13300
C1179       C  0.99971516  0.48118801  0.25059333     0.00400
C1180       C  0.00343266  0.46283755  0.28206573    -0.11800
C1181       C  0.50157553  0.42798687  0.28245371     0.02900
C1182       C  0.49806800  0.41093134  0.25063179    -0.11200
H1183       H  0.99113843  0.47564455  0.19452882     0.08500
H1184       H  0.00808708  0.47517564  0.30662617     0.06000
H1185       H  0.49744088  0.38406967  0.25068584     0.05900
C1186       C  0.99953739  0.07194912  0.28253973     0.02900
C1187       C  0.00327435  0.08904328  0.25074085    -0.13300
C1188       C  0.00556517  0.07196812  0.21874233     0.00400
C1189       C  0.00518566  0.03704837  0.21892450    -0.11800
C1190       C  0.00053290  0.01885824  0.25033466     0.02900
C1191       C  0.99717522  0.03712834  0.28195001    -0.11200
H1192       H  0.00426348  0.11588954  0.25087614     0.08500
H1193       H  0.00875111  0.02445879  0.19425999     0.06000
H1194       H  0.99239845  0.02471577  0.30643903     0.05900
C1195       C  0.99799936  0.17789819  0.46902141     0.02900
C1196       C  0.00151179  0.16138208  0.00078263    -0.13300
C1197       C  0.00442664  0.17856387  0.03261943     0.00400
C1198       C  0.00458298  0.21351014  0.03219693    -0.11800
C1199       C  0.99978672  0.23164894  0.00069117     0.02900
C1200       C  0.99608878  0.21275810  0.46937120    -0.11200
H1201       H  0.00217095  0.13452202  0.00077279     0.08500
H1202       H  0.00860765  0.22609366  0.05676018     0.06000
H1203       H  0.99135475  0.22503396  0.44479932     0.05900
C1204       C  0.49455341  0.32232681  0.03250637     0.02900
C1205       C  0.99458182  0.28744164  0.03216693    -0.13300
C1206       C  0.99860733  0.26932198  0.00059952     0.00400
C1207       C  0.00147251  0.28727904  0.46914571    -0.11800
C1208       C  0.49951732  0.32213191  0.46879293     0.02900
C1209       C  0.49649130  0.33957375  0.00060559    -0.11200
H1210       H  0.99122716  0.27485224  0.05685703     0.08500
H1211       H  0.00560434  0.27497244  0.44445230     0.06000
H1212       H  0.49577143  0.36643242  0.00064510     0.05900
O1213       O  0.80225096  0.14998091  0.10959393    -0.73200
O1214       O  0.71178914  0.14857456  0.10958843    -0.74200
O1215       O  0.75644700  0.17511130  0.15465707    -0.62800
O1216       O  0.75728569  0.12291043  0.06432058    -0.71200
O1217       O  0.75870386  0.07577965  0.09424615    -0.70700
O1218       O  0.75616471  0.12780349  0.18431879    -0.62000
O1219       O  0.71225416  0.10056832  0.13825650    -0.74500
O1220       O  0.80287747  0.10331483  0.14023174    -0.73300
Cu1221     Cu  0.75698550  0.15074186  0.10841737     1.04600
Cu1222     Cu  0.75759703  0.10023682  0.14030465     1.04300
C1223       C  0.81697581  0.12719943  0.12539985     0.93000
C1224       C  0.69778251  0.12450996  0.12407017     0.92200
C1225       C  0.75565305  0.15952827  0.18392447     0.84300
C1226       C  0.75785134  0.09115509  0.06488465     0.90600
O1227       O  0.00597641  0.12796548  0.06566110    -0.73200
O1228       O  0.00715400  0.07544928  0.15575194    -0.74200
O1229       O  0.96154737  0.10223403  0.11202315    -0.62800
O1230       O  0.55181311  0.10086632  0.10933466    -0.71200
O1231       O  0.55330479  0.14755923  0.13969554    -0.70700
O1232       O  0.96250729  0.14972195  0.14148573    -0.62000
O1233       O  0.00796624  0.12254560  0.18574384    -0.74500
O1234       O  0.00761980  0.17506585  0.09558812    -0.73300
Cu1235     Cu  0.00664027  0.10006064  0.10961979     1.04600
Cu1236     Cu  0.00796301  0.15036618  0.14171009     1.04300
C1237       C  0.00635981  0.15971107  0.06621393     0.93000
C1238       C  0.00726701  0.09081614  0.18516021     0.92200
C1239       C  0.94772783  0.12598152  0.12731736     0.84300
C1240       C  0.56703476  0.12377037  0.12418033     0.90600
C1241       C  0.64919010  0.09661676  0.11145719    -0.09400
C1242       C  0.66458467  0.12437015  0.12435097     0.06800
C1243       C  0.64805449  0.15155439  0.13720763    -0.03200
C1244       C  0.61649116  0.15070036  0.13684285    -0.06800
C1245       C  0.60067393  0.12307737  0.12356867     0.05900
C1246       C  0.61758337  0.09574282  0.11055874    -0.02600
Br1247     Br  0.59993672  0.05616094  0.09117310    -0.02300
H1248       H  0.66189706  0.07563620  0.10148999     0.09800
H1249       H  0.60433290  0.17189377  0.14715167     0.07900
Br1250     Br  0.66751979  0.18960402  0.15749691    -0.02800
C1251       C  0.86605942  0.09810498  0.13283393    -0.09400
C1252       C  0.85050799  0.12792371  0.12637061     0.06800
C1253       C  0.86747128  0.15737447  0.12150733    -0.03200
C1254       C  0.89907254  0.15620448  0.12253464    -0.07600
C1255       C  0.91441029  0.12622380  0.12808717     0.05900
C1256       C  0.89760562  0.09702670  0.13375231    -0.02600
Br1257     Br  0.91629631  0.05531975  0.14504424    -0.02300
H1258       H  0.85364624  0.07530316  0.13711722     0.09800
H1259       H  0.91178274  0.17885812  0.11847890     0.07900
Br1260     Br  0.84953370  0.20034530  0.11469315    -0.02800
C1261       C  0.64260223  0.40220535  0.36741842    -0.09400
C1262       C  0.65817540  0.37369882  0.37892705     0.06800
C1263       C  0.64102941  0.34593396  0.39029516    -0.03200
C1264       C  0.60945173  0.34710458  0.38915099    -0.07600
C1265       C  0.59426066  0.37557522  0.37770629     0.05900
C1266       C  0.61103078  0.40338542  0.36691102    -0.02600
Br1267     Br  0.59199551  0.44282730  0.34915191    -0.02300
H1268       H  0.65497329  0.42382094  0.35855849     0.09800
H1269       H  0.59659239  0.32567693  0.39765504     0.07900
Br1270     Br  0.65830457  0.30523933  0.40741965    -0.02800
C1271       C  0.85970760  0.40430806  0.37509085    -0.09400
C1272       C  0.84443850  0.37402346  0.37166992     0.06800
C1273       C  0.86133959  0.34462615  0.36740511    -0.03200
C1274       C  0.89292488  0.34591844  0.36772563    -0.07600
C1275       C  0.90833638  0.37610962  0.37233014     0.05900
C1276       C  0.89127074  0.40567052  0.37553671    -0.02600
Br1277     Br  0.90905949  0.44902320  0.37916033    -0.02300
H1278       H  0.84697602  0.42712372  0.37794248     0.09800
H1279       H  0.90548314  0.32302149  0.36468237     0.07900
Br1280     Br  0.84275890  0.30225811  0.35910035    -0.02800
C1281       C  0.60559036  0.09384251  0.37404794    -0.09400
C1282       C  0.59036311  0.12403040  0.37888542     0.06800
C1283       C  0.60731698  0.15317545  0.38425037    -0.03200
C1284       C  0.63885649  0.15185735  0.38357960    -0.07600
C1285       C  0.65426565  0.12186255  0.37762473     0.05900
C1286       C  0.63719004  0.09244174  0.37326720    -0.02600
Br1287     Br  0.65501564  0.04927415  0.36747778    -0.02300
H1288       H  0.59279807  0.07118957  0.37034057     0.09800
H1289       H  0.65137972  0.17464565  0.38751448     0.07900
Br1290     Br  0.58889902  0.19519951  0.39466860    -0.02800
C1291       C  0.85606769  0.09633754  0.37027174    -0.09400
C1292       C  0.84051625  0.12670259  0.37151215     0.06800
C1293       C  0.85735014  0.15649416  0.37200379    -0.03200
C1294       C  0.88895193  0.15529108  0.37231933    -0.07600
C1295       C  0.90442954  0.12487896  0.37222418     0.05900
C1296       C  0.88763323  0.09514909  0.37060297    -0.02600
Br1297     Br  0.90616990  0.05216144  0.36677136    -0.02300
H1298       H  0.84359832  0.07322678  0.36935749     0.09800
H1299       H  0.90151043  0.17835315  0.37299371     0.07900
Br1300     Br  0.83895892  0.19966613  0.37044796    -0.02800
C1301       C  0.63419042  0.37013056  0.15676467    -0.09400
C1302       C  0.64966745  0.37479929  0.12501665     0.06800
C1303       C  0.63323547  0.37982748  0.09380091    -0.03200
C1304       C  0.60161361  0.38026130  0.09471628    -0.07600
C1305       C  0.58601344  0.37499590  0.12636920     0.05900
C1306       C  0.60256816  0.36986358  0.15762923    -0.02600
Br1307     Br  0.58322992  0.36431286  0.20244509    -0.02300
H1308       H  0.64676601  0.36654499  0.18093331     0.09800
H1309       H  0.58915372  0.38432840  0.07055691     0.07900
Br1310     Br  0.65313947  0.38744796  0.04970353    -0.02800
C1311       C  0.85130319  0.34593326  0.12308262    -0.09400
C1312       C  0.83575024  0.37627493  0.12516627     0.06800
C1313       C  0.85267488  0.40602014  0.12628254    -0.03200
C1314       C  0.88428369  0.40478758  0.12596641    -0.07600
C1315       C  0.89978054  0.37441964  0.12467400     0.05900
C1316       C  0.88290857  0.34472615  0.12282824    -0.02600
Br1317     Br  0.90133950  0.30181135  0.11771017    -0.02300
H1318       H  0.83880557  0.32285984  0.12173862     0.09800
H1319       H  0.89685621  0.42783055  0.12698787     0.07900
Br1320     Br  0.83447304  0.44931817  0.12635004    -0.02800
O1321       O  0.74238698  0.32546646  0.65558680    -0.73200
O1322       O  0.74348337  0.37771816  0.56550938    -0.74200
O1323       O  0.78826776  0.35173928  0.61111068    -0.62800
O1324       O  0.69746994  0.35168757  0.60959727    -0.71200
O1325       O  0.69716496  0.39814777  0.64102660    -0.70700
O1326       O  0.78782023  0.39915260  0.64050583    -0.62000
O1327       O  0.74236836  0.42485757  0.59542687    -0.74500
O1328       O  0.74281958  0.37251150  0.68570035    -0.73300
Cu1329     Cu  0.74286016  0.35001262  0.60941103     1.04600
Cu1330     Cu  0.74247487  0.40028289  0.64173433     1.04300
C1331       C  0.74272291  0.34078065  0.68502828     0.93000
C1332       C  0.74343092  0.40944471  0.56605322     0.92200
C1333       C  0.80245619  0.37578185  0.62555138     0.84300
C1334       C  0.68309115  0.37486248  0.62523444     0.90600
O1335       O  0.99285776  0.37779835  0.68583119    -0.73200
O1336       O  0.49377533  0.32531205  0.59570492    -0.74200
O1337       O  0.53854627  0.35175982  0.64166211    -0.62800
O1338       O  0.94794478  0.35108356  0.64018399    -0.71200
O1339       O  0.94779343  0.39857699  0.61083559    -0.70700
O1340       O  0.53870702  0.39817268  0.61026043    -0.62000
O1341       O  0.49300976  0.37239939  0.56566416    -0.74500
O1342       O  0.49362466  0.42479668  0.65564949    -0.73300
Cu1343     Cu  0.49323125  0.34987358  0.64190608     1.04600
Cu1344     Cu  0.49323968  0.40011921  0.60954319     1.04300
C1345       C  0.49358315  0.40952003  0.68510691     0.93000
C1346       C  0.49357394  0.34068604  0.56628786     0.92200
C1347       C  0.55292864  0.37502904  0.62622350     0.84300
C1348       C  0.93349393  0.37454698  0.62513504     0.90600
O1349       O  0.74833799  0.07504352  0.90465293    -0.73200
O1350       O  0.74598869  0.12689617  0.81421390    -0.74200
O1351       O  0.79241634  0.10215414  0.85842150    -0.62800
O1352       O  0.70184493  0.09975763  0.86038321    -0.71200
O1353       O  0.70144540  0.14661058  0.89071080    -0.70700
O1354       O  0.79191656  0.14958282  0.88784308    -0.62000
O1355       O  0.74504576  0.17403976  0.84413717    -0.74500
O1356       O  0.74836408  0.12230237  0.93438946    -0.73300
Cu1357     Cu  0.74713446  0.09933096  0.85834882     1.04600
Cu1358     Cu  0.74663621  0.14974331  0.89031306     1.04300
C1359       C  0.74882382  0.09058230  0.93395753     0.93000
C1360       C  0.74543110  0.15862718  0.81477272     0.92200
C1361       C  0.80653120  0.12640023  0.87254394     0.84300
C1362       C  0.68724575  0.12263741  0.87618769     0.90600
O1363       O  0.99633591  0.12774982  0.93595238    -0.73200
O1364       O  0.99681390  0.07540917  0.84571431    -0.74200
O1365       O  0.54180948  0.10083321  0.89175342    -0.62800
O1366       O  0.95131482  0.10212035  0.88989628    -0.71200
O1367       O  0.95194935  0.14899356  0.85944581    -0.70700
O1368       O  0.54256405  0.14849544  0.86260856    -0.62000
O1369       O  0.99821344  0.12259811  0.81589813    -0.74500
O1370       O  0.99643242  0.17489975  0.90600861    -0.73300
Cu1371     Cu  0.99649125  0.09993330  0.89192481     1.04600
Cu1372     Cu  0.99729088  0.15037497  0.85992393     1.04300
C1373       C  0.99653632  0.15949482  0.93538181     0.93000
C1374       C  0.99778838  0.09085692  0.81637108     0.92200
C1375       C  0.55649667  0.12469365  0.87776468     0.84300
C1376       C  0.93729232  0.12536906  0.87395223     0.90600
O1377       O  0.75119831  0.32468845  0.84549425    -0.73200
O1378       O  0.75310499  0.37694077  0.93588038    -0.74200
O1379       O  0.70697311  0.35044854  0.89238287    -0.62800
O1380       O  0.79737141  0.35088349  0.88909544    -0.71200
O1381       O  0.79649242  0.39805112  0.85913165    -0.70700
O1382       O  0.70583536  0.39747604  0.86250996    -0.62000
O1383       O  0.75226219  0.42401028  0.90582498    -0.74500
O1384       O  0.75008423  0.37190930  0.81572704    -0.73300
Cu1385     Cu  0.75222969  0.34913379  0.89179372     1.04600
Cu1386     Cu  0.75115339  0.39948355  0.85975265     1.04300
C1387       C  0.75029488  0.34018657  0.81616479     0.93000
C1388       C  0.75274354  0.40869005  0.93523739     0.92200
C1389       C  0.69194097  0.37373805  0.87787685     0.84300
C1390       C  0.81125473  0.37430260  0.87333031     0.90600
O1391       O  0.50288212  0.37815413  0.81559517    -0.73200
O1392       O  0.00082112  0.32621143  0.90576134    -0.74200
O1393       O  0.95651951  0.35270643  0.85924963    -0.62800
O1394       O  0.54714629  0.35198914  0.86222881    -0.71200
O1395       O  0.54665206  0.39968497  0.89140682    -0.70700
O1396       O  0.95618600  0.39970869  0.88940732    -0.62000
O1397       O  0.00071458  0.37336504  0.93568555    -0.74500
O1398       O  0.50212688  0.42543580  0.84530507    -0.73300
Cu1399     Cu  0.50187896  0.35063492  0.85965221     1.04600
Cu1400     Cu  0.50142231  0.40115173  0.89154733     1.04300
C1401       C  0.50252237  0.40987492  0.81601483     0.93000
C1402       C  0.00051560  0.34160219  0.93512715     0.92200
C1403       C  0.94197722  0.37653302  0.87361148     0.84300
C1404       C  0.56116573  0.37593523  0.87699725     0.90600
C1405       C  0.75197510  0.42771007  0.96874173     0.02900
C1406       C  0.74815223  0.41074349  0.50062582    -0.13300
C1407       C  0.74565158  0.42813361  0.53241282     0.00400
C1408       C  0.74627980  0.46306622  0.53188726    -0.11800
C1409       C  0.75130808  0.48094821  0.50030071     0.02900
C1410       C  0.75446237  0.46252360  0.96892430    -0.11200
H1411       H  0.74684813  0.38391316  0.50068687     0.08500
H1412       H  0.74261815  0.47586747  0.55640973     0.06000
H1413       H  0.75939316  0.47460981  0.94429822     0.05900
C1414       C  0.75697319  0.07222475  0.53138853     0.02900
C1415       C  0.75712128  0.03727174  0.53128687    -0.13300
C1416       C  0.75267794  0.01894486  0.49989776     0.00400
C1417       C  0.74839186  0.03712058  0.96825474    -0.11800
C1418       C  0.75039389  0.07194927  0.96763054     0.02900
C1419       C  0.75447050  0.08917175  0.49936079    -0.11200
H1420       H  0.76076465  0.02475251  0.55599270     0.08500
H1421       H  0.74365582  0.02464010  0.94378510     0.06000
H1422       H  0.75502806  0.11603342  0.49916001     0.05900
C1423       C  0.75334673  0.17813634  0.71764646     0.02900
C1424       C  0.75328537  0.21304583  0.71824735    -0.13300
C1425       C  0.74822767  0.23094629  0.74978326     0.00400
C1426       C  0.74422207  0.21236817  0.78105519    -0.11800
C1427       C  0.74629392  0.17753812  0.78124069     0.02900
C1428       C  0.75029762  0.16073556  0.74934684    -0.11200
H1429       H  0.75748693  0.22581853  0.69382512     0.08500
H1430       H  0.73930400  0.22455148  0.80563534     0.06000
H1431       H  0.75117331  0.13388376  0.74922406     0.05900
C1432       C  0.74901316  0.32153673  0.78244855     0.02900
C1433       C  0.75060574  0.28667612  0.78183956    -0.13300
C1434       C  0.74730796  0.26856202  0.75011596     0.00400
C1435       C  0.74332661  0.28693155  0.71868276    -0.11800
C1436       C  0.74378915  0.32183597  0.71856551     0.02900
C1437       C  0.74607492  0.33878531  0.75062522    -0.11200
H1438       H  0.75482638  0.27412887  0.80639837     0.08500
H1439       H  0.73969239  0.27451403  0.69392759     0.06000
H1440       H  0.74570074  0.36565014  0.75079066     0.05900
C1441       C  0.49533269  0.42845576  0.71862810     0.02900
C1442       C  0.99504968  0.46341748  0.71892501    -0.13300
C1443       C  0.99956496  0.48162523  0.75040946     0.00400
C1444       C  0.00333701  0.46333825  0.78190339    -0.11800
C1445       C  0.50161317  0.42850424  0.78234167     0.02900
C1446       C  0.49816648  0.41138098  0.75054581    -0.11200
H1447       H  0.99110867  0.47597767  0.69431368     0.08500
H1448       H  0.00794948  0.47572744  0.80644588     0.06000
H1449       H  0.49763306  0.38451785  0.75065595     0.05900
C1450       C  0.99906725  0.07208221  0.78270578     0.02900
C1451       C  0.00295886  0.08915660  0.75092098    -0.13300
C1452       C  0.00553644  0.07205347  0.71897689     0.00400
C1453       C  0.00525997  0.03714800  0.71918367    -0.11800
C1454       C  0.00043179  0.01897281  0.75054428     0.02900
C1455       C  0.99681848  0.03723992  0.78213175    -0.11200
H1456       H  0.00387238  0.11600636  0.75102281     0.08500
H1457       H  0.00906445  0.02454072  0.69457491     0.06000
H1458       H  0.99196867  0.02479832  0.80659016     0.05900
C1459       C  0.99778473  0.17836052  0.96894254     0.02900
C1460       C  0.00176658  0.16092350  0.50085498    -0.13300
C1461       C  0.00463145  0.17812156  0.53268950     0.00400
C1462       C  0.00469626  0.21306107  0.53228884    -0.11800
C1463       C  0.99985410  0.23119440  0.50081146     0.02900
C1464       C  0.99598884  0.21322159  0.96926428    -0.11200
H1465       H  0.00250955  0.13406608  0.50084155     0.08500
H1466       H  0.00868925  0.22564807  0.55685567     0.06000
H1467       H  0.99129845  0.22551398  0.94468879     0.05900
C1468       C  0.49474919  0.32191580  0.53267308     0.02900
C1469       C  0.99475736  0.28702364  0.53235455    -0.13300
C1470       C  0.99866194  0.26886971  0.50076218     0.00400
C1471       C  0.00149311  0.28776010  0.96899809    -0.11800
C1472       C  0.49950921  0.32263329  0.96866520     0.02900
C1473       C  0.49659901  0.33911357  0.50072796    -0.11200
H1474       H  0.99148622  0.27446468  0.55707761     0.08500
H1475       H  0.00568734  0.27546301  0.94431175     0.06000
H1476       H  0.49589124  0.36597237  0.50072538     0.05900
O1477       O  0.80249382  0.15004448  0.60965204    -0.73200
O1478       O  0.71201903  0.14860329  0.60959829    -0.74200
O1479       O  0.75665271  0.17517257  0.65471542    -0.62800
O1480       O  0.75757667  0.12296393  0.56434293    -0.71200
O1481       O  0.75901728  0.07583856  0.59427446    -0.70700
O1482       O  0.75633843  0.12786367  0.68437174    -0.62000
O1483       O  0.71249742  0.10058431  0.63824086    -0.74500
O1484       O  0.80309973  0.10339013  0.64031185    -0.73300
Cu1485     Cu  0.75722503  0.15079721  0.60845623     1.04600
Cu1486     Cu  0.75783293  0.10029324  0.64034217     1.04300
C1487       C  0.81720791  0.12724776  0.62544823     0.93000
C1488       C  0.69801838  0.12452125  0.62405912     0.92200
C1489       C  0.75582344  0.15959000  0.68398438     0.84300
C1490       C  0.75820537  0.09120870  0.56490693     0.90600
O1491       O  0.00624012  0.12757985  0.56579556    -0.73200
O1492       O  0.00734822  0.07539092  0.65602637    -0.74200
O1493       O  0.96178763  0.10199266  0.61217009    -0.62800
O1494       O  0.55205438  0.10065092  0.60959860    -0.71200
O1495       O  0.55351831  0.14741262  0.63984021    -0.70700
O1496       O  0.96271963  0.14954506  0.64151662    -0.62000
O1497       O  0.00812381  0.12255472  0.68590868    -0.74500
O1498       O  0.00784941  0.17474208  0.59562315    -0.73300
Cu1499     Cu  0.00688169  0.09983123  0.60983439     1.04600
Cu1500     Cu  0.00816918  0.15021265  0.64179946     1.04300
C1501       C  0.00659853  0.15932237  0.56628954     0.93000
C1502       C  0.00739373  0.09083011  0.68538949     0.92200
C1503       C  0.94795352  0.12577790  0.62737890     0.84300
C1504       C  0.56726367  0.12360486  0.62437465     0.90600
C1505       C  0.64943906  0.09660563  0.61142082    -0.09400
C1506       C  0.66481907  0.12435594  0.62434648     0.06800
C1507       C  0.64827383  0.15148869  0.63729705    -0.03200
C1508       C  0.61670988  0.15057884  0.63701550    -0.06800
C1509       C  0.60090565  0.12295651  0.62371594     0.05900
C1510       C  0.61783159  0.09568293  0.61058874    -0.02600
Br1511     Br  0.60020963  0.05613375  0.59109501    -0.02300
H1512       H  0.66215775  0.07566539  0.60137939     0.09800
H1513       H  0.60454122  0.17173153  0.64740158     0.07900
Br1514     Br  0.66772667  0.18954348  0.65758959    -0.02800
C1515       C  0.86623671  0.09803363  0.63275572    -0.09400
C1516       C  0.85073900  0.12789885  0.62635709     0.06800
C1517       C  0.86775292  0.15730868  0.62148231    -0.03200
C1518       C  0.89934943  0.15607089  0.62252967    -0.07600
C1519       C  0.91463574  0.12605542  0.62807121     0.05900
C1520       C  0.89777969  0.09687856  0.63365627    -0.02600
Br1521     Br  0.91637777  0.05508333  0.64479230    -0.02300
H1522       H  0.85378198  0.07525303  0.63700115     0.09800
H1523       H  0.91209802  0.17870210  0.61849506     0.07900
Br1524     Br  0.84989621  0.20030700  0.61459110    -0.02800
C1525       C  0.64287750  0.40286677  0.86932393    -0.09400
C1526       C  0.65832606  0.37362172  0.87872551     0.06800
C1527       C  0.64110805  0.34524084  0.88795571    -0.03200
C1528       C  0.60953132  0.34663853  0.88699606    -0.07600
C1529       C  0.59441567  0.37586634  0.87767896     0.05900
C1530       C  0.61131754  0.40422400  0.86886581    -0.02600
Br1531     Br  0.59258528  0.44479852  0.85372929    -0.02300
H1532       H  0.65535617  0.42494524  0.86209267     0.09800
H1533       H  0.59662320  0.32473367  0.89387605     0.07900
Br1534     Br  0.65836190  0.30332079  0.90137279    -0.02800
C1535       C  0.85984294  0.40489872  0.87344918    -0.09400
C1536       C  0.84462145  0.37440397  0.87207303     0.06800
C1537       C  0.86164073  0.34486439  0.86973348    -0.03200
C1538       C  0.89320626  0.34630002  0.86986657    -0.07600
C1539       C  0.90851141  0.37673756  0.87239841     0.05900
C1540       C  0.89141443  0.40636974  0.87369981    -0.02600
Br1541     Br  0.90929739  0.44980249  0.87420915    -0.02300
H1542       H  0.84708859  0.42782015  0.87479081     0.09800
H1543       H  0.90585754  0.32332618  0.86833842     0.07900
Br1544     Br  0.84339007  0.30190539  0.86440754    -0.02800
C1545       C  0.60502808  0.09414486  0.87363535    -0.09400
C1546       C  0.58983555  0.12433447  0.87858602     0.06800
C1547       C  0.60681388  0.15344990  0.88400915    -0.03200
C1548       C  0.63835246  0.15208799  0.88335958    -0.07600
C1549       C  0.65373268  0.12208015  0.87735157     0.05900
C1550       C  0.63662381  0.09270279  0.87285488    -0.02600
Br1551     Br  0.65438836  0.04953291  0.86686685    -0.02300
H1552       H  0.59220899  0.07152054  0.86985602     0.09800
H1553       H  0.65089765  0.17484961  0.88737108     0.07900
Br1554     Br  0.58842559  0.19547852  0.89449218    -0.02800
C1555       C  0.85556658  0.09660553  0.87084124    -0.09400
C1556       C  0.83998491  0.12695304  0.87178121     0.06800
C1557       C  0.85677810  0.15677403  0.87202494    -0.03200
C1558       C  0.88838474  0.15562012  0.87237701    -0.07600
C1559       C  0.90389871  0.12522507  0.87255180     0.05900
C1560       C  0.88712899  0.09546175  0.87120618    -0.02600
Br1561     Br  0.90568146  0.05245323  0.86779497    -0.02300
H1562       H  0.84311955  0.07347371  0.87013001     0.09800
H1563       H  0.90091527  0.17870487  0.87283671     0.07900
Br1564     Br  0.83830831  0.19989145  0.87002229    -0.02800
C1565       C  0.63442659  0.37016716  0.65691223    -0.09400
C1566       C  0.64991083  0.37476546  0.62515656     0.06800
C1567       C  0.63348489  0.37976876  0.59393271    -0.03200
C1568       C  0.60186397  0.38022417  0.59484009    -0.07600
C1569       C  0.58625414  0.37501345  0.62649613     0.05900
C1570       C  0.60280238  0.36992964  0.65777232    -0.02600
Br1571     Br  0.58345734  0.36448830  0.70260023    -0.02300
H1572       H  0.64699738  0.36661241  0.68108911     0.09800
H1573       H  0.58941187  0.38425918  0.57066923     0.07900
Br1574     Br  0.65339706  0.38732643  0.54982914    -0.02800
C1575       C  0.85155316  0.34580289  0.62312393    -0.09400
C1576       C  0.83599389  0.37614464  0.62514464     0.06800
C1577       C  0.85291076  0.40589695  0.62619731    -0.03200
C1578       C  0.88451842  0.40467356  0.62590158    -0.07600
C1579       C  0.90002197  0.37430880  0.62467343     0.05900
C1580       C  0.88315976  0.34460625  0.62287659    -0.02600
Br1581     Br  0.90161147  0.30169542  0.61782546    -0.02300
H1582       H  0.83906020  0.32272370  0.62182376     0.09800
H1583       H  0.89708509  0.42772242  0.62687788     0.07900
Br1584     Br  0.83469882  0.44919009  0.62612515    -0.02800
O1585       O  0.74113545  0.82566442  0.15524254    -0.73200
O1586       O  0.74233261  0.87799118  0.06510083    -0.74200
O1587       O  0.78709199  0.85163502  0.11060350    -0.62800
O1588       O  0.69621255  0.85238592  0.10936532    -0.71200
O1589       O  0.69629482  0.89885639  0.14078150    -0.70700
O1590       O  0.78687747  0.89899582  0.14008293    -0.62000
O1591       O  0.74157017  0.92510798  0.09506989    -0.74500
O1592       O  0.74184307  0.87270500  0.18534772    -0.73300
Cu1593     Cu  0.74162597  0.85026782  0.10903603     1.04600
Cu1594     Cu  0.74158714  0.90051857  0.14138728     1.04300
C1595       C  0.74167817  0.84097034  0.18469007     0.93000
C1596       C  0.74247718  0.90971816  0.06567085     0.92200
C1597       C  0.80140190  0.87558182  0.12507357     0.84300
C1598       C  0.68202972  0.87572708  0.12498586     0.90600
O1599       O  0.99188364  0.87778868  0.18521414    -0.73200
O1600       O  0.49304718  0.82570637  0.09502205    -0.74200
O1601       O  0.53768234  0.85247174  0.14091233    -0.62800
O1602       O  0.94703378  0.85093812  0.13957708    -0.71200
O1603       O  0.94662428  0.89852017  0.11038719    -0.70700
O1604       O  0.53748215  0.89895784  0.10963082    -0.62000
O1605       O  0.49195265  0.87280196  0.06500372    -0.74500
O1606       O  0.49235279  0.92491300  0.15523982    -0.73300
Cu1607     Cu  0.49236714  0.85010590  0.14122741     1.04600
Cu1608     Cu  0.49203001  0.90043531  0.10900520     1.04300
C1609       C  0.49251992  0.90950192  0.18462344     0.93000
C1610       C  0.49276591  0.84108866  0.06562072     0.92200
C1611       C  0.55188140  0.87594842  0.12557926     0.84300
C1612       C  0.93245488  0.87437796  0.12464074     0.90600
O1613       O  0.74913082  0.57477695  0.40450781    -0.73200
O1614       O  0.74658931  0.62702293  0.31417219    -0.74200
O1615       O  0.79309511  0.60209297  0.35821288    -0.62800
O1616       O  0.70253144  0.59962432  0.36038467    -0.71200
O1617       O  0.70214801  0.64643941  0.39077886    -0.70700
O1618       O  0.79262739  0.64942997  0.38779888    -0.62000
O1619       O  0.74571584  0.67409560  0.34420942    -0.74500
O1620       O  0.74912521  0.62198546  0.43431960    -0.73300
Cu1621     Cu  0.74782444  0.59925308  0.35823767     1.04600
Cu1622     Cu  0.74735032  0.64958973  0.39032286     1.04300
C1623       C  0.74961922  0.59026228  0.43385202     0.93000
C1624       C  0.74603530  0.65876335  0.31479433     0.92200
C1625       C  0.80722465  0.62628773  0.37240973     0.84300
C1626       C  0.68794075  0.62246255  0.37626848     0.90600
O1627       O  0.99689033  0.62750031  0.43601035    -0.73200
O1628       O  0.99747289  0.57522202  0.34574469    -0.74200
O1629       O  0.54244965  0.60053457  0.39189870    -0.62800
O1630       O  0.95194995  0.60186642  0.38985371    -0.71200
O1631       O  0.95264484  0.64876866  0.35944825    -0.70700
O1632       O  0.54325912  0.64817696  0.36272459    -0.62000
O1633       O  0.99888938  0.62242513  0.31595025    -0.74500
O1634       O  0.99708006  0.67463480  0.40603777    -0.73300
Cu1635     Cu  0.99711846  0.59967820  0.39197452     1.04600
Cu1636     Cu  0.99798026  0.65012493  0.35997979     1.04300
C1637       C  0.99708739  0.65924877  0.43541564     0.93000
C1638       C  0.99840602  0.59069376  0.31641081     0.92200
C1639       C  0.55716839  0.62437577  0.37791816     0.84300
C1640       C  0.93796235  0.62513421  0.37390212     0.90600
O1641       O  0.75094388  0.82517054  0.34511981    -0.73200
O1642       O  0.75351927  0.87730492  0.43550491    -0.74200
O1643       O  0.70726671  0.85234518  0.39167457    -0.62800
O1644       O  0.79736570  0.84987973  0.38917470    -0.71200
O1645       O  0.79810855  0.89661149  0.35886908    -0.70700
O1646       O  0.70703152  0.89944181  0.36188183    -0.62000
O1647       O  0.75415594  0.92438356  0.40548648    -0.74500
O1648       O  0.75091700  0.87233595  0.31524735    -0.73300
Cu1649     Cu  0.75229969  0.84962000  0.39141596     1.04600
Cu1650     Cu  0.75261401  0.89986410  0.35931750     1.04300
C1651       C  0.75044286  0.84061641  0.31574952     0.93000
C1652       C  0.75384948  0.90904136  0.43490314     0.92200
C1653       C  0.69269130  0.87596699  0.37719219     0.84300
C1654       C  0.81221138  0.87247331  0.37336578     0.90600
O1655       O  0.50374543  0.87746432  0.31493377    -0.73200
O1656       O  0.00329753  0.82560248  0.40539199    -0.74200
O1657       O  0.95832712  0.84922666  0.35830839    -0.62800
O1658       O  0.54870137  0.85368710  0.36207489    -0.71200
O1659       O  0.54646726  0.90097973  0.39183688    -0.70700
O1660       O  0.95591981  0.89716685  0.38698031    -0.62000
O1661       O  0.00037229  0.87285815  0.43494407    -0.74500
O1662       O  0.50190529  0.92473469  0.34462296    -0.73300
Cu1663     Cu  0.50366303  0.84986276  0.35911580     1.04600
Cu1664     Cu  0.50108228  0.90052740  0.39071297     1.04300
C1665       C  0.50270384  0.90919350  0.31536290     0.93000
C1666       C  0.00158421  0.84112135  0.43462981     0.92200
C1667       C  0.94291095  0.87283625  0.37168610     0.84300
C1668       C  0.56186388  0.87795667  0.37731218     0.90600
C1669       C  0.75280258  0.92798311  0.46846451     0.02900
C1670       C  0.74755376  0.91114610  0.00022360    -0.13300
C1671       C  0.74476913  0.92844986  0.03204769     0.00400
C1672       C  0.74525581  0.96337903  0.03160037    -0.11800
C1673       C  0.75045693  0.98131854  0.00010890     0.02900
C1674       C  0.75528649  0.96278622  0.46879742    -0.11200
H1675       H  0.74639239  0.88430814  0.00022558     0.08500
H1676       H  0.74137878  0.97616210  0.05609633     0.06000
H1677       H  0.76054601  0.97497688  0.44431252     0.05900
C1678       C  0.75653526  0.57220538  0.03130849     0.02900
C1679       C  0.75667772  0.53725392  0.03124947    -0.13300
C1680       C  0.75237450  0.51885100  0.99987496     0.00400
C1681       C  0.74943402  0.53674800  0.46822173    -0.11800
C1682       C  0.75118296  0.57160750  0.46755652     0.02900
C1683       C  0.75415631  0.58912475  0.99925219    -0.11200
H1684       H  0.76021236  0.52481821  0.05601344     0.08500
H1685       H  0.74499996  0.52423651  0.44370193     0.06000
H1686       H  0.75469416  0.61598631  0.99905017     0.05900
C1687       C  0.75324458  0.67833113  0.21755845     0.02900
C1688       C  0.75304364  0.71324514  0.21811354    -0.13300
C1689       C  0.74821259  0.73117529  0.24968220     0.00400
C1690       C  0.74461594  0.71259971  0.28105858    -0.11800
C1691       C  0.74674992  0.67775120  0.28125765     0.02900
C1692       C  0.75053290  0.66095291  0.24931863    -0.11200
H1693       H  0.75694505  0.72600564  0.19361724     0.08500
H1694       H  0.73991206  0.72478917  0.30569244     0.06000
H1695       H  0.75147709  0.63410428  0.24920008     0.05900
C1696       C  0.74884987  0.82189173  0.28208437     0.02900
C1697       C  0.75055269  0.78702897  0.28154084    -0.13300
C1698       C  0.74707610  0.76881604  0.24990642     0.00400
C1699       C  0.74272461  0.78711622  0.21846424    -0.11800
C1700       C  0.74301376  0.82204013  0.21825776     0.02900
C1701       C  0.74554418  0.83905895  0.25026067    -0.11200
H1702       H  0.75503317  0.77455444  0.30607948     0.08500
H1703       H  0.73896393  0.77463390  0.19377146     0.06000
H1704       H  0.74507010  0.86592202  0.25038696     0.05900
C1705       C  0.49452155  0.92824775  0.21821043     0.02900
C1706       C  0.99437647  0.96320066  0.21866774    -0.13300
C1707       C  0.99930656  0.98124449  0.25015444     0.00400
C1708       C  0.00326659  0.96280343  0.28151409    -0.11800
C1709       C  0.50146721  0.92795045  0.28179785     0.02900
C1710       C  0.49763904  0.91099220  0.24998802    -0.11200
H1711       H  0.99025130  0.97589895  0.19417292     0.08500
H1712       H  0.00813998  0.97510109  0.30604659     0.06000
H1713       H  0.49702831  0.88412997  0.24998685     0.05900
C1714       C  0.99951176  0.57194957  0.28274042     0.02900
C1715       C  0.00310959  0.58901249  0.25091053    -0.13300
C1716       C  0.00546711  0.57189398  0.21895308     0.00400
C1717       C  0.00530775  0.53697577  0.21921008    -0.11800
C1718       C  0.00076864  0.51881054  0.25066546     0.02900
C1719       C  0.99731277  0.53712647  0.28223048    -0.11200
H1720       H  0.00395940  0.61586493  0.25099311     0.08500
H1721       H  0.00895242  0.52439102  0.19456478     0.06000
H1722       H  0.99261075  0.52476368  0.30675928     0.05900
C1723       C  0.99820731  0.67816064  0.46894685     0.02900
C1724       C  0.00169563  0.66116539  0.00095549    -0.13300
C1725       C  0.00438322  0.67838627  0.03279752     0.00400
C1726       C  0.00445384  0.71334883  0.03234511    -0.11800
C1727       C  0.99982127  0.73143234  0.00076587     0.02900
C1728       C  0.99644842  0.71302764  0.46920618    -0.11200
H1729       H  0.00243407  0.63430744  0.00095832     0.08500
H1730       H  0.00827919  0.72599000  0.05692044     0.06000
H1731       H  0.99185113  0.72530690  0.44459423     0.05900
C1732       C  0.49420741  0.82226174  0.03206544     0.02900
C1733       C  0.99438018  0.78736557  0.03192624    -0.13300
C1734       C  0.99863630  0.76910318  0.00049827     0.00400
C1735       C  0.00247390  0.78747418  0.46883291    -0.11800
C1736       C  0.50043736  0.82233078  0.46829961     0.02900
C1737       C  0.49625273  0.83934114  0.00005932    -0.11200
H1738       H  0.99095921  0.77486596  0.05665714     0.08500
H1739       H  0.00695643  0.77505680  0.44427918     0.06000
H1740       H  0.49542813  0.86619606  0.99993966     0.05900
O1741       O  0.80206258  0.65001248  0.10949761    -0.73200
O1742       O  0.71157191  0.64873954  0.10955241    -0.74200
O1743       O  0.75630917  0.67528959  0.15459375    -0.62800
O1744       O  0.75707358  0.62297804  0.06424025    -0.71200
O1745       O  0.75849298  0.57588017  0.09421507    -0.70700
O1746       O  0.75597172  0.62801142  0.18429860    -0.62000
O1747       O  0.71204143  0.60074151  0.13823527    -0.74500
O1748       O  0.80263949  0.60339136  0.14021080    -0.73300
Cu1749     Cu  0.75678999  0.65085435  0.10834695     1.04600
Cu1750     Cu  0.75737263  0.60038168  0.14028210     1.04300
C1751       C  0.81676402  0.62721786  0.12531602     0.93000
C1752       C  0.69756746  0.62467842  0.12404976     0.92200
C1753       C  0.75553075  0.65974162  0.18388700     0.84300
C1754       C  0.75769946  0.59122231  0.06482668     0.90600
O1755       O  0.00583320  0.62779170  0.06585698    -0.73200
O1756       O  0.00697218  0.57529842  0.15595921    -0.74200
O1757       O  0.96136619  0.60197461  0.11213350    -0.62800
O1758       O  0.55163005  0.60074217  0.10960218    -0.71200
O1759       O  0.55305739  0.64745606  0.13992856    -0.70700
O1760       O  0.96225648  0.64948629  0.14155789    -0.62000
O1761       O  0.00770694  0.62242601  0.18590152    -0.74500
O1762       O  0.00739947  0.67490527  0.09576822    -0.73300
Cu1763     Cu  0.00646708  0.59988095  0.10981626     1.04600
Cu1764     Cu  0.00770932  0.65021013  0.14187254     1.04300
C1765       C  0.00621002  0.65954114  0.06640096     0.93000
C1766       C  0.00707343  0.59069729  0.18534825     0.92200
C1767       C  0.94751147  0.62573058  0.12736701     0.84300
C1768       C  0.56682022  0.62368063  0.12442851     0.90600
C1769       C  0.64900220  0.59678881  0.11133769    -0.09400
C1770       C  0.66436992  0.62450787  0.12435491     0.06800
C1771       C  0.64781526  0.65157748  0.13743459    -0.03200
C1772       C  0.61625145  0.65063669  0.13718618    -0.06800
C1773       C  0.60046008  0.62305160  0.12377912     0.05900
C1774       C  0.61739720  0.59583865  0.11053083    -0.02600
Br1775     Br  0.59980018  0.55634131  0.09088606    -0.02300
H1776       H  0.66173013  0.57589411  0.10120415     0.09800
H1777       H  0.60407350  0.67174073  0.14766842     0.07900
Br1778     Br  0.66725535  0.68958579  0.15783442    -0.02800
C1779       C  0.86578796  0.59800487  0.13278054    -0.09400
C1780       C  0.85029764  0.62785053  0.12623758     0.06800
C1781       C  0.86732262  0.65723603  0.12124773    -0.03200
C1782       C  0.89891661  0.65599509  0.12232844    -0.07600
C1783       C  0.91419415  0.62600107  0.12801491     0.05900
C1784       C  0.89733327  0.59684642  0.13370166    -0.02600
Br1785     Br  0.91593764  0.55508960  0.14498391    -0.02300
H1786       H  0.85332752  0.57524299  0.13711499     0.09800
H1787       H  0.91167283  0.67860785  0.11820926     0.07900
Br1788     Br  0.84949036  0.70021643  0.11415149    -0.02800
C1789       C  0.64363843  0.90611644  0.37142033    -0.09400
C1790       C  0.65909734  0.87624423  0.37824429     0.06800
C1791       C  0.64191906  0.84736859  0.38555292    -0.03200
C1792       C  0.61040303  0.84888896  0.38540115    -0.07600
C1793       C  0.59515325  0.87860956  0.37850581     0.05900
C1794       C  0.61199896  0.90754609  0.37164408    -0.02600
Br1795     Br  0.59312625  0.94905725  0.36002930    -0.02300
H1796       H  0.65617621  0.92855652  0.36573494     0.09800
H1797       H  0.59761708  0.82649963  0.39066238     0.07900
Br1798     Br  0.65911094  0.80436358  0.39450668    -0.02800
C1799       C  0.86155591  0.89742158  0.35599672    -0.09400
C1800       C  0.84584012  0.87095772  0.37183933     0.06800
C1801       C  0.86286082  0.84403276  0.38570386    -0.03200
C1802       C  0.89445995  0.84480044  0.38441808    -0.07600
C1803       C  0.90975179  0.87188224  0.36992773     0.05900
C1804       C  0.89313732  0.89802864  0.35497448    -0.02600
Br1805     Br  0.91261548  0.93432877  0.33143026    -0.02300
H1806       H  0.84932056  0.91800934  0.34448146     0.09800
H1807       H  0.90724666  0.82444131  0.39564386     0.07900
Br1808     Br  0.84544022  0.80525337  0.40710165    -0.02800
C1809       C  0.60574522  0.59382909  0.37397134    -0.09400
C1810       C  0.59051682  0.62401868  0.37880544     0.06800
C1811       C  0.60747280  0.65316134  0.38416328    -0.03200
C1812       C  0.63901397  0.65184624  0.38347944    -0.07600
C1813       C  0.65442649  0.62185059  0.37753261     0.05900
C1814       C  0.63734948  0.59242928  0.37319189    -0.02600
Br1815     Br  0.65519291  0.54926521  0.36746836    -0.02300
H1816       H  0.59295115  0.57117511  0.37028235     0.09800
H1817       H  0.65153635  0.67463546  0.38741022     0.07900
Br1818     Br  0.58904280  0.69517125  0.39461746    -0.02800
C1819       C  0.85623014  0.59645174  0.37055057    -0.09400
C1820       C  0.84067481  0.62681359  0.37164174     0.06800
C1821       C  0.85749225  0.65661731  0.37206015    -0.03200
C1822       C  0.88909385  0.65542579  0.37241826    -0.07600
C1823       C  0.90457784  0.62501616  0.37244912     0.05900
C1824       C  0.88779002  0.59527473  0.37093832    -0.02600
Br1825     Br  0.90631972  0.55227060  0.36734391    -0.02300
H1826       H  0.84376547  0.57333449  0.36971506     0.09800
H1827       H  0.90164611  0.67849376  0.37301797     0.07900
Br1828     Br  0.83907866  0.69977943  0.37034013    -0.02800
C1829       C  0.63329514  0.87115403  0.15652501    -0.09400
C1830       C  0.64885490  0.87602033  0.12486860     0.06800
C1831       C  0.63251665  0.88172688  0.09371918    -0.03200
C1832       C  0.60089047  0.88208583  0.09450022    -0.07600
C1833       C  0.58520275  0.87633476  0.12600037     0.05900
C1834       C  0.60167114  0.87108611  0.15729988    -0.02600
Br1835     Br  0.58220044  0.86584547  0.20208197    -0.02300
H1836       H  0.64580398  0.86730053  0.18069379     0.09800
H1837       H  0.58850303  0.88647410  0.07035411     0.07900
Br1838     Br  0.65257412  0.89049814  0.04995892    -0.02800
C1839       C  0.85051401  0.84554485  0.12235190    -0.09400
C1840       C  0.83494701  0.87587306  0.12463789     0.06800
C1841       C  0.85187110  0.90561428  0.12602697    -0.03200
C1842       C  0.88346853  0.90439495  0.12577407    -0.07600
C1843       C  0.89898221  0.87405544  0.12426133     0.05900
C1844       C  0.88213610  0.84436247  0.12216534    -0.02600
Br1845     Br  0.90066825  0.80153568  0.11678117    -0.02300
H1846       H  0.83802179  0.82247934  0.12081012     0.09800
H1847       H  0.89602629  0.92744035  0.12699256     0.07900
Br1848     Br  0.83371222  0.94894102  0.12639285    -0.02800
O1849       O  0.74146557  0.82579568  0.65511864    -0.73200
O1850       O  0.74270421  0.87811386  0.56507284    -0.74200
O1851       O  0.78742115  0.85180540  0.61056821    -0.62800
O1852       O  0.69654338  0.85249524  0.60925084    -0.71200
O1853       O  0.69659541  0.89895352  0.64068658    -0.70700
O1854       O  0.78718021  0.89917426  0.64003689    -0.62000
O1855       O  0.74189822  0.92524017  0.59503145    -0.74500
O1856       O  0.74215512  0.87283252  0.68523801    -0.73300
Cu1857     Cu  0.74196258  0.85040323  0.60895926     1.04600
Cu1858     Cu  0.74188987  0.90065477  0.64131693     1.04300
C1859       C  0.74201768  0.84109960  0.68456096     0.93000
C1860       C  0.74288196  0.90983553  0.56564823     0.92200
C1861       C  0.80171617  0.87576274  0.62503894     0.84300
C1862       C  0.68234390  0.87581959  0.62488049     0.90600
O1863       O  0.99217821  0.87795749  0.68521752    -0.73200
O1864       O  0.49337674  0.82574638  0.59506726    -0.74200
O1865       O  0.53798855  0.85257296  0.64095334    -0.62800
O1866       O  0.94733310  0.85107463  0.63958995    -0.71200
O1867       O  0.94694487  0.89863369  0.61035861    -0.70700
O1868       O  0.53779635  0.89905706  0.60966751    -0.62000
O1869       O  0.49232086  0.87283427  0.56503676    -0.74500
O1870       O  0.49264051  0.92507400  0.65523946    -0.73300
Cu1871     Cu  0.49266976  0.85021799  0.64125567     1.04600
Cu1872     Cu  0.49234999  0.90053382  0.60901251     1.04300
C1873       C  0.49280562  0.90966783  0.68462838     0.93000
C1874       C  0.49315836  0.84111851  0.56565846     0.92200
C1875       C  0.55219132  0.87604074  0.62560791     0.84300
C1876       C  0.93276420  0.87451362  0.62463616     0.90600
O1877       O  0.74887278  0.57507144  0.90443961    -0.73200
O1878       O  0.74655912  0.62727373  0.81409658    -0.74200
O1879       O  0.79295249  0.60231461  0.85825007    -0.62800
O1880       O  0.70238497  0.60002965  0.86020703    -0.71200
O1881       O  0.70199964  0.64684057  0.89060435    -0.70700
O1882       O  0.79248324  0.64967970  0.88779098    -0.62000
O1883       O  0.74566988  0.67437180  0.84409062    -0.74500
O1884       O  0.74889572  0.62227726  0.93425466    -0.73300
Cu1885     Cu  0.74767758  0.59954860  0.85817045     1.04600
Cu1886     Cu  0.74720815  0.64989794  0.89023364     1.04300
C1887       C  0.74935733  0.59054867  0.93378619     0.93000
C1888       C  0.74603205  0.65901090  0.81469028     0.92200
C1889       C  0.80707970  0.62651058  0.87244789     0.84300
C1890       C  0.68779028  0.62289161  0.87604841     0.90600
O1891       O  0.99685093  0.62753552  0.93603519    -0.73200
O1892       O  0.99729942  0.57556799  0.84560594    -0.74200
O1893       O  0.54235305  0.60083554  0.89169878    -0.62800
O1894       O  0.95184037  0.60205576  0.88991513    -0.71200
O1895       O  0.95245769  0.64900137  0.85958670    -0.70700
O1896       O  0.54304974  0.64856344  0.86267745    -0.62000
O1897       O  0.99865588  0.62282531  0.81590388    -0.74500
O1898       O  0.99690915  0.67474309  0.90618786    -0.73300
Cu1899     Cu  0.99701951  0.59989227  0.89190269     1.04600
Cu1900     Cu  0.99777642  0.65041187  0.86003348     1.04300
C1901       C  0.99698390  0.65927847  0.93552329     0.93000
C1902       C  0.99818636  0.59109013  0.81630243     0.92200
C1903       C  0.55701506  0.62474887  0.87776859     0.84300
C1904       C  0.93781198  0.62534132  0.87403728     0.90600
O1905       O  0.75146536  0.82530274  0.84491261    -0.73200
O1906       O  0.75290704  0.87736221  0.93534806    -0.74200
O1907       O  0.70713048  0.85147292  0.89117488    -0.62800
O1908       O  0.79736948  0.85101805  0.88912925    -0.71200
O1909       O  0.79735414  0.89772445  0.85863680    -0.70700
O1910       O  0.70646541  0.89867758  0.86152318    -0.62000
O1911       O  0.75305607  0.92447630  0.90537689    -0.74500
O1912       O  0.75068643  0.87248215  0.81506407    -0.73300
Cu1913     Cu  0.75227120  0.84972600  0.89121286     1.04600
Cu1914     Cu  0.75191754  0.90001425  0.85912593     1.04300
C1915       C  0.75069432  0.84075680  0.81555856     0.93000
C1916       C  0.75292126  0.90909822  0.93478379     0.92200
C1917       C  0.69235995  0.87486599  0.87650925     0.84300
C1918       C  0.81178834  0.87382902  0.87308541     0.90600
O1919       O  0.50332216  0.87748555  0.81487130    -0.73200
O1920       O  0.00194719  0.82549879  0.90525918    -0.74200
O1921       O  0.95740452  0.85067678  0.85836223    -0.62800
O1922       O  0.54787080  0.85222031  0.86160083    -0.71200
O1923       O  0.54667638  0.89952738  0.89140073    -0.70700
O1924       O  0.95611710  0.89841657  0.88740980    -0.62000
O1925       O  0.00026237  0.87276755  0.93491095    -0.74500
O1926       O  0.50244696  0.92472497  0.84466773    -0.73300
Cu1927     Cu  0.50272096  0.84982531  0.85897891     1.04600
Cu1928     Cu  0.50135021  0.90044135  0.89072592     1.04300
C1929       C  0.50285174  0.90922774  0.81536972     0.93000
C1930       C  0.00078565  0.84101428  0.93454400     0.92200
C1931       C  0.94249859  0.87461123  0.87191168     0.84300
C1932       C  0.56156552  0.87623222  0.87664665     0.90600
C1933       C  0.75183208  0.92799015  0.96838322     0.02900
C1934       C  0.74829643  0.91118914  0.50027885    -0.13300
C1935       C  0.74536063  0.92853106  0.53205080     0.00400
C1936       C  0.74592191  0.96344778  0.53158776    -0.11800
C1937       C  0.75133395  0.98134039  0.50012820     0.02900
C1938       C  0.75424027  0.96279522  0.96873488    -0.11200
H1939       H  0.74705795  0.88435529  0.50029951     0.08500
H1940       H  0.74191558  0.97626154  0.55603882     0.06000
H1941       H  0.75936653  0.97500641  0.94422584     0.05900
C1942       C  0.75677670  0.57198739  0.53138589     0.02900
C1943       C  0.75695443  0.53702895  0.53133916    -0.13300
C1944       C  0.75270044  0.51861124  0.49995189     0.00400
C1945       C  0.74911172  0.53700124  0.96814423    -0.11800
C1946       C  0.75089642  0.57186898  0.96748650     0.02900
C1947       C  0.75440330  0.58888245  0.49931525    -0.11200
H1948       H  0.76047141  0.52460465  0.55611441     0.08500
H1949       H  0.74466509  0.52449373  0.94362464     0.06000
H1950       H  0.75491137  0.61574437  0.49909505     0.05900
C1951       C  0.75342742  0.67845319  0.71744882     0.02900
C1952       C  0.75335728  0.71336694  0.71797636    -0.13300
C1953       C  0.74853541  0.73133051  0.74952490     0.00400
C1954       C  0.74481217  0.71280035  0.78090252    -0.11800
C1955       C  0.74683728  0.67795307  0.78113616     0.02900
C1956       C  0.75060986  0.66111223  0.74922001    -0.11200
H1957       H  0.75734579  0.72610059  0.69348176     0.08500
H1958       H  0.74009531  0.72502839  0.80551214     0.06000
H1959       H  0.75146019  0.63425968  0.74912862     0.05900
C1960       C  0.74926258  0.82202934  0.78190300     0.02900
C1961       C  0.75100276  0.78717200  0.78136321    -0.13300
C1962       C  0.74749700  0.76896090  0.74973424     0.00400
C1963       C  0.74314354  0.78724975  0.71829489    -0.11800
C1964       C  0.74340311  0.82216886  0.71810021     0.02900
C1965       C  0.74592863  0.83919022  0.75009086    -0.11200
H1966       H  0.75548630  0.77469737  0.80590163     0.08500
H1967       H  0.73937670  0.77476106  0.69360588     0.06000
H1968       H  0.74541286  0.86605266  0.75021701     0.05900
C1969       C  0.49478781  0.92840173  0.71823735     0.02900
C1970       C  0.99447500  0.96335612  0.71876958    -0.13300
C1971       C  0.99934713  0.98136801  0.75029969     0.00400
C1972       C  0.00339075  0.96291307  0.78162515    -0.11800
C1973       C  0.50173414  0.92804527  0.78183740     0.02900
C1974       C  0.49800801  0.91112155  0.74998445    -0.11200
H1975       H  0.99025266  0.97608074  0.69430866     0.08500
H1976       H  0.00815350  0.97522807  0.80618171     0.06000
H1977       H  0.49751914  0.88425666  0.74992937     0.05900
C1978       C  0.99927871  0.57237972  0.78260817     0.02900
C1979       C  0.00300359  0.58944976  0.75080765    -0.13300
C1980       C  0.00540341  0.57232981  0.71885516     0.00400
C1981       C  0.00516649  0.53741348  0.71907819    -0.11800
C1982       C  0.00053432  0.51924818  0.75049535     0.02900
C1983       C  0.99699416  0.53756037  0.78205690    -0.11200
H1984       H  0.00392642  0.61629947  0.75090941     0.08500
H1985       H  0.00884072  0.52481941  0.69444224     0.06000
H1986       H  0.99218548  0.52519370  0.80655688     0.05900
C1987       C  0.99807076  0.67811161  0.96909102     0.02900
C1988       C  0.00178591  0.66122942  0.50082570    -0.13300
C1989       C  0.00459382  0.67846616  0.53263834     0.00400
C1990       C  0.00479621  0.71341112  0.53217526    -0.11800
C1991       C  0.00018049  0.73149629  0.50061961     0.02900
C1992       C  0.99617102  0.71295192  0.96936839    -0.11200
H1993       H  0.00242093  0.63436856  0.50086389     0.08500
H1994       H  0.00872951  0.72605643  0.55672959     0.06000
H1995       H  0.99150560  0.72519498  0.94476087     0.05900
C1996       C  0.49472708  0.82229670  0.53209339     0.02900
C1997       C  0.99477374  0.78739453  0.53188944    -0.13300
C1998       C  0.99914008  0.76916458  0.50044346     0.00400
C1999       C  0.00173362  0.78738776  0.96881887    -0.11800
C2000       C  0.49960222  0.82223581  0.96823566     0.02900
C2001       C  0.49700949  0.83940672  0.50012796    -0.11200
H2002       H  0.99114859  0.77486432  0.55656852     0.08500
H2003       H  0.00619090  0.77498466  0.94425623     0.06000
H2004       H  0.49626966  0.86626390  0.50003719     0.05900
O2005       O  0.80220429  0.65005059  0.60943541    -0.73200
O2006       O  0.71172526  0.64863440  0.60952225    -0.74200
O2007       O  0.75644684  0.67532751  0.65448290    -0.62800
O2008       O  0.75724383  0.62281324  0.56424378    -0.71200
O2009       O  0.75871849  0.57576683  0.59430280    -0.70700
O2010       O  0.75615082  0.62809407  0.68426899    -0.62000
O2011       O  0.71222924  0.60068143  0.63828833    -0.74500
O2012       O  0.80284005  0.60348338  0.64024288    -0.73300
Cu2013     Cu  0.75693647  0.65079990  0.60828825     1.04600
Cu2014     Cu  0.75757276  0.60038165  0.64031825     1.04300
C2015       C  0.81693165  0.62732709  0.62533282     0.93000
C2016       C  0.69773737  0.62459651  0.62408218     0.92200
C2017       C  0.75569548  0.65982267  0.68380323     0.84300
C2018       C  0.75790787  0.59105609  0.56488433     0.90600
O2019       O  0.00599551  0.62793285  0.56574758    -0.73200
O2020       O  0.00704557  0.57567812  0.65590465    -0.74200
O2021       O  0.96149736  0.60233767  0.61207197    -0.62800
O2022       O  0.55175983  0.60094181  0.60954189    -0.71200
O2023       O  0.55324442  0.64768719  0.63980971    -0.70700
O2024       O  0.96244224  0.64989783  0.64140770    -0.62000
O2025       O  0.00782158  0.62283645  0.68579834    -0.74500
O2026       O  0.00763948  0.67509251  0.59557941    -0.73300
Cu2027     Cu  0.00659129  0.60014973  0.60974685     1.04600
Cu2028     Cu  0.00789702  0.65052522  0.64172525     1.04300
C2029       C  0.00641574  0.65967564  0.56624660     0.93000
C2030       C  0.00712624  0.59111088  0.68526847     0.92200
C2031       C  0.94767124  0.62612551  0.62728753     0.84300
C2032       C  0.56697944  0.62386274  0.62436035     0.90600
C2033       C  0.64912911  0.59676397  0.61141409    -0.09400
C2034       C  0.66453805  0.62445088  0.62443969     0.06800
C2035       C  0.64802154  0.65155009  0.63752009    -0.03200
C2036       C  0.61645507  0.65068940  0.63721885    -0.06800
C2037       C  0.60062195  0.62314883  0.62377469     0.05900
C2038       C  0.61752128  0.59588765  0.61057071    -0.02600
Br2039     Br  0.59986460  0.55641966  0.59093696    -0.02300
H2040       H  0.66182636  0.57584337  0.60128965     0.09800
H2041       H  0.60430823  0.67182012  0.64768948     0.07900
Br2042     Br  0.66751831  0.68949230  0.65798912    -0.02800
C2043       C  0.86600973  0.59826715  0.63290068    -0.09400
C2044       C  0.85045931  0.62806365  0.62632262     0.06800
C2045       C  0.86741846  0.65750306  0.62137439    -0.03200
C2046       C  0.89901934  0.65633448  0.62238810    -0.07600
C2047       C  0.91435624  0.62636981  0.62803977     0.05900
C2048       C  0.89755384  0.59719308  0.63382627    -0.02600
Br2049     Br  0.91624248  0.55552984  0.64530343    -0.02300
H2050       H  0.85359788  0.57547842  0.63726704     0.09800
H2051       H  0.91172958  0.67897695  0.61826196     0.07900
Br2052     Br  0.84947353  0.70046140  0.61450133    -0.02800
C2053       C  0.64320997  0.90457221  0.87103886    -0.09400
C2054       C  0.65879666  0.87464813  0.87698853     0.06800
C2055       C  0.64180743  0.84535249  0.88274955    -0.03200
C2056       C  0.61025226  0.84667776  0.88269908    -0.07600
C2057       C  0.59487300  0.87659857  0.87712778     0.05900
C2058       C  0.61160577  0.90576913  0.87104547    -0.02600
Br2059     Br  0.59267015  0.94738937  0.85998613    -0.02300
H2060       H  0.65563130  0.92727047  0.86621532     0.09800
H2061       H  0.59757544  0.82404281  0.88703412     0.07900
Br2062     Br  0.65947753  0.80217129  0.88908284    -0.02800
C2063       C  0.86096806  0.90206659  0.86229730    -0.09400
C2064       C  0.84533597  0.87291441  0.87143413     0.06800
C2065       C  0.86228795  0.84381698  0.87863551    -0.03200
C2066       C  0.89386747  0.84488999  0.87790050    -0.07600
C2067       C  0.90923988  0.87436537  0.87025257     0.05900
C2068       C  0.89255558  0.90297766  0.86160328    -0.02600
Br2069     Br  0.91166053  0.94336857  0.84665497    -0.02300
H2070       H  0.84862599  0.92448453  0.85590529     0.09800
H2071       H  0.90655357  0.82260791  0.88399143     0.07900
Br2072     Br  0.84452269  0.80134017  0.88873403    -0.02800
C2073       C  0.60559897  0.59428373  0.87363172    -0.09400
C2074       C  0.59036286  0.62444670  0.87857685     0.06800
C2075       C  0.60730869  0.65359707  0.88395832    -0.03200
C2076       C  0.63885465  0.65229419  0.88325229    -0.07600
C2077       C  0.65427249  0.62230887  0.87724269     0.05900
C2078       C  0.63719688  0.59290014  0.87280750    -0.02600
Br2079     Br  0.65502160  0.54975669  0.86686585    -0.02300
H2080       H  0.59281220  0.57163189  0.86989029     0.09800
H2081       H  0.65137562  0.67507688  0.88723133     0.07900
Br2082     Br  0.58886145  0.69558965  0.89447546    -0.02800
C2083       C  0.85607444  0.59664913  0.87084063    -0.09400
C2084       C  0.84052576  0.62701701  0.87173569     0.06800
C2085       C  0.85734208  0.65681856  0.87199821    -0.03200
C2086       C  0.88894139  0.65562831  0.87242879    -0.07600
C2087       C  0.90442464  0.62521585  0.87263596     0.05900
C2088       C  0.88763342  0.59547081  0.87125866    -0.02600
Br2089     Br  0.90615233  0.55245316  0.86783780    -0.02300
H2090       H  0.84360392  0.57353221  0.87011126     0.09800
H2091       H  0.90149014  0.67870086  0.87289973     0.07900
Br2092     Br  0.83892044  0.69995590  0.86987902    -0.02800
C2093       C  0.63362905  0.87127493  0.65646828    -0.09400
C2094       C  0.64916574  0.87608155  0.62478423     0.06800
C2095       C  0.63280036  0.88171740  0.59363832    -0.03200
C2096       C  0.60117438  0.88208564  0.59445728    -0.07600
C2097       C  0.58551252  0.87640529  0.62598968     0.05900
C2098       C  0.60200528  0.87120770  0.65727882    -0.02600
Br2099     Br  0.58256542  0.86604083  0.70208805    -0.02300
H2100       H  0.64615644  0.86747108  0.68063294     0.09800
H2101       H  0.58876610  0.88642785  0.57031644     0.07900
Br2102     Br  0.65281508  0.89038588  0.54982858    -0.02800
C2103       C  0.85081650  0.84572246  0.62237300    -0.09400
C2104       C  0.83525832  0.87605651  0.62462273     0.06800
C2105       C  0.85218695  0.90579534  0.62598377    -0.03200
C2106       C  0.88378620  0.90456376  0.62574642    -0.07600
C2107       C  0.89929086  0.87421444  0.62426148     0.05900
C2108       C  0.88243525  0.84452864  0.62218765    -0.02600
Br2109     Br  0.90094735  0.80169289  0.61681562    -0.02300
H2110       H  0.83831890  0.82265917  0.62084943     0.09800
H2111       H  0.89635159  0.92760488  0.62694265     0.07900
Br2112     Br  0.83402794  0.94912492  0.62626409    -0.02800
loop_ 
_geom_bond_atom_site_label_1 
_geom_bond_atom_site_label_2 
_geom_bond_distance 
_geom_bond_site_symmetry_2 
_ccdc_geom_bond_type 
O1           Cu9   2.016       .  S
O1           C11   1.279       .  A
O2           Cu9   2.009       .  S
O2           C12   1.279       .  A
O3           Cu9   2.011       .  S
O3           C13   1.279       .  A
O4           Cu9   2.009       .  S
O4           C14   1.277       .  A
O5          Cu10   2.007       .  S
O5           C14   1.277       .  A
O6          Cu10   2.007       .  S
O6           C13   1.277       .  A
O7          Cu10   2.021       .  S
O7           C12   1.279       .  A
O8          Cu10   2.012       .  S
O8           C11   1.279       .  A
Cu9         Cu10   2.370       .  S
C11         C116   1.488       .  S
C12          C87   1.488       .  S
C13         C256   1.484       .  S
C14         C246   1.468       .  S
O15       Cu1079   2.012       .  S
O15        C1081   1.280       .  A
O16         Cu23   2.015       .  S
O16          C26   1.279       .  A
O17         Cu23   2.006   1_455  S
O17          C27   1.277       .  A
O18       Cu1079   2.005       .  S
O18          C28   1.277       .  A
O19       Cu1080   2.012       .  S
O19          C28   1.279       .  A
O20         Cu24   2.013   1_455  S
O20          C27   1.278       .  A
O21         Cu24   2.007       .  S
O21          C26   1.279       .  A
O22         Cu24   2.015       .  S
O22          C25   1.278       .  A
Cu23       O1071   2.012       .  S
Cu23       O1074   2.005       .  S
Cu23        Cu24   2.370       .  S
Cu24       O1075   2.012       .  S
C25        O1071   1.280       .  A
C25         C121   1.487       .  S
C26         C148   1.485       .  S
C27         C249   1.474       .  S
C28         C259   1.481       .  S
O29         Cu37   2.016       .  S
O29          C39   1.279       .  A
O30         Cu37   2.014       .  S
O30          C40   1.280       .  A
O31         Cu37   2.006       .  S
O31          C41   1.278       .  A
O32         Cu37   2.005       .  S
O32          C42   1.276       .  A
O33         Cu38   2.004       .  S
O33          C42   1.278       .  A
O34         Cu38   2.006       .  S
O34          C41   1.277       .  A
O35         Cu38   2.012       .  S
O35          C40   1.278       .  A
O36         Cu38   2.009       .  S
O36          C39   1.279       .  A
Cu37        Cu38   2.368       .  S
C39          C98   1.486       .  S
C40         C107   1.486       .  S
C41         C236   1.481       .  S
C42         C229   1.483       .  S
O43         Cu51   2.016       .  S
O43          C53   1.280       .  A
O44         Cu51   2.017       .  S
O44          C54   1.279       .  A
O45       Cu1107   2.006   1_455  S
O45          C55   1.277       .  A
O46         Cu51   2.002       .  S
O46          C56   1.277       .  A
O47         Cu52   2.007       .  S
O47          C56   1.278       .  A
O48       Cu1108   2.007   1_455  S
O48          C55   1.277       .  A
O49         Cu52   2.015       .  S
O49          C54   1.280       .  A
O50         Cu52   2.013       .  S
O50          C53   1.278       .  A
Cu51       O1101   2.006       .  S
Cu51        Cu52   2.370       .  S
Cu52       O1104   2.007       .  S
C53         C139   1.487       .  S
C54         C130   1.488       .  S
C55         C226   1.476       .  S
C56         C239   1.478       .  S
O57         Cu65   2.017       .  S
O57          C67   1.279       .  A
O58         Cu65   2.018       .  S
O58          C68   1.280       .  A
O59         Cu65   2.002       .  S
O59          C69   1.275       .  A
O60         Cu65   2.001       .  S
O60          C70   1.276       .  A
O61         Cu66   2.007       .  S
O61          C70   1.278       .  A
O62         Cu66   2.010       .  S
O62          C69   1.279       .  A
O63         Cu66   2.013       .  S
O63          C68   1.278       .  A
O64         Cu66   2.011       .  S
O64          C67   1.279       .  A
Cu65        Cu66   2.368       .  S
C67         C112   1.487       .  S
C68          C85   1.488       .  S
C69         C206   1.489       .  S
C70         C216   1.475       .  S
O71         Cu79   2.011       .  S
O71          C81   1.279       .  A
O72       Cu1135   2.012       .  S
O72          C82   1.278       .  A
O73       Cu1135   2.010       .  S
O73          C83   1.279       .  A
O74         Cu79   2.007       .  S
O74          C84   1.278       .  A
O75         Cu80   2.001       .  S
O75          C84   1.276       .  A
O76       Cu1136   2.003       .  S
O76          C83   1.276       .  A
O77       Cu1136   2.017       .  S
O77          C82   1.280       .  A
O78         Cu80   2.012       .  S
O78          C81   1.278       .  A
Cu79       O1128   2.012       .  S
Cu79       O1129   2.010   1_455  S
Cu79        Cu80   2.370       .  S
Cu80       O1132   2.003   1_455  S
Cu80       O1133   2.017       .  S
C81         C125   1.485       .  S
C82        C1208   1.488       .  S
C83         C219   1.483       .  S
C84         C209   1.470       .  S
C85          C90   1.408       .  A
C85         C350   1.400       .  A
C86          C87   1.402       .  A
C86         C349   1.400   1_554  A
C86          H91   1.083       .  S
C87          C88   1.409       .  A
C88          C89   1.419       .  A
C88          H92   1.078       .  S
C89         C624   1.520   1_554  S
C89         C354   1.418   1_554  A
C90         C353   1.418       .  A
C90          H93   1.078       .  S
C94         C170   1.488       .  S
C94          C95   1.409       .  A
C94          C99   1.401   1_554  A
C95          C96   1.417   1_554  A
C95         H100   1.078       .  S
C96         C617   1.518   1_546  S
C96         C361   1.417       .  A
C97          C98   1.407       .  A
C97         C360   1.417       .  A
C97         H101   1.078       .  S
C98         C363   1.401       .  A
C99         C362   1.401       .  A
C99         H102   1.083       .  S
C103        C169   1.486       .  S
C103        C104   1.407       .  A
C103        C108   1.401       .  A
C104        C105   1.417       .  A
C104        H109   1.078       .  S
C105        C114   1.518       .  S
C105        C106   1.417       .  A
C106        C107   1.407       .  A
C106        H110   1.078       .  S
C107        C108   1.400       .  A
C108        H111   1.083       .  S
C112        C113   1.407       .  A
C112        C117   1.401       .  A
C113        C114   1.418       .  A
C113        H118   1.078       .  S
C114        C115   1.418       .  A
C115        C116   1.408       .  A
C115        H119   1.078       .  S
C116        C117   1.401       .  A
C117        H120   1.083       .  S
C121        C126   1.401       .  A
C121       C1178   1.408       .  A
C122        C123   1.418       .  A
C122       C1177   1.408       .  A
C122        H127   1.078       .  S
C123        C662   1.517       .  S
C123        C124   1.416       .  A
C124       C1181   1.406       .  A
C124        H128   1.078       .  S
C125        C126   1.400   1_455  A
C125       C1180   1.406       .  A
C126        H129   1.083       .  S
C130        C131   1.402       .  A
C130        C135   1.408       .  A
C131        C132   1.402       .  A
C131        H136   1.083       .  S
C132        C182   1.488       .  S
C132        C133   1.408       .  A
C133        C134   1.417       .  A
C133        H137   1.078       .  S
C134        C651   1.517   1_545  S
C134        C135   1.418       .  A
C135        H138   1.078       .  S
C139        C144   1.408       .  A
C139        C404   1.400       .  A
C140        C141   1.401       .  A
C140        C403   1.401   1_554  A
C140        H145   1.083       .  S
C141        C181   1.489       .  S
C141        C142   1.409       .  A
C142        C143   1.419       .  A
C142        H146   1.078       .  S
C143        C150   1.520       .  S
C143        C408   1.417   1_554  A
C144        C407   1.418       .  A
C144        H147   1.078       .  S
C148        C153   1.401       .  A
C148       C1205   1.407       .  A
C149        C150   1.417       .  A
C149       C1204   1.407       .  A
C149        H154   1.078       .  S
C150        C415   1.419   1_554  A
C151        C414   1.419       .  A
C151       C1208   1.409       .  A
C151        H155   1.078       .  S
C152       C1138   1.488   1_655  S
C152       C1207   1.409   1_655  A
C152        C417   1.400       .  A
C153        C416   1.400   1_554  A
C153        H156   1.083       .  S
O157       Cu165   2.003       .  S
O157        C167   1.276       .  A
O158       Cu165   2.002       .  S
O158        C168   1.276       .  A
O159       Cu165   2.015       .  S
O159        C169   1.279       .  A
O160       Cu165   2.018       .  S
O160        C170   1.281       .  A
O161       Cu166   2.011       .  S
O161        C170   1.278       .  A
O162       Cu166   2.010       .  S
O162        C169   1.279       .  A
O163       Cu166   2.007       .  S
O163        C168   1.277       .  A
O164       Cu166   2.007       .  S
O164        C167   1.279       .  A
Cu165      Cu166   2.370       .  S
C167        C196   1.484       .  S
C168        C186   1.469       .  S
O171       Cu179   2.015       .  S
O171        C181   1.280       .  A
O172       Cu179   2.016       .  S
O172        C182   1.279       .  A
O173       Cu179   1.999       .  S
O173        C183   1.276       .  A
O174      Cu1235   1.999       .  S
O174        C184   1.275       .  A
O175      Cu1236   2.010       .  S
O175        C184   1.279       .  A
O176       Cu180   2.011       .  S
O176        C183   1.278       .  A
O177       Cu180   2.015       .  S
O177        C182   1.280       .  A
O178       Cu180   2.017       .  S
O178        C181   1.278       .  A
Cu179      O1230   1.999       .  S
Cu179      Cu180   2.368       .  S
Cu180      O1231   2.010       .  S
C183        C199   1.474       .  S
C184        C189   1.489       .  S
C185        C186   1.399       .  A
C185        C190   1.399       .  A
C185        H192   1.084       .  S
C186        C187   1.405       .  A
C187        C188   1.397       .  A
C187       Br194   1.921       .  S
C188        C189   1.409       .  A
C188        H193   1.083       .  S
C189        C190   1.421       .  A
C190       Br191   1.923       .  S
C195        C196   1.406       .  A
C195        C200   1.397       .  A
C195        H202   1.083       .  S
C196        C197   1.417       .  A
C197        C198   1.399       .  A
C197       Br204   1.922       .  S
C198        C199   1.402       .  A
C198        H203   1.084       .  S
C199        C200   1.409       .  A
C200       Br201   1.922       .  S
C205        C206   1.409       .  A
C205        C210   1.398       .  A
C205        H212   1.083       .  S
C206        C207   1.420       .  A
C207        C208   1.398       .  A
C207       Br214   1.923       .  S
C208        C209   1.399       .  A
C208        H213   1.084       .  S
C209        C210   1.406       .  A
C210       Br211   1.921       .  S
C215        C216   1.402       .  A
C215        C220   1.398       .  A
C215        H222   1.084       .  S
C216        C217   1.410       .  A
C217        C218   1.398       .  A
C217       Br224   1.922       .  S
C218        C219   1.406       .  A
C218        H223   1.083       .  S
C219        C220   1.416       .  A
C220       Br221   1.922       .  S
C225        C226   1.403       .  A
C225        C230   1.399       .  A
C225        H232   1.084       .  S
C226        C227   1.409       .  A
C227        C228   1.397       .  A
C227       Br234   1.921       .  S
C228        C229   1.406       .  A
C228        H233   1.083       .  S
C229        C230   1.416       .  A
C230       Br231   1.923       .  S
C235        C236   1.405       .  A
C235        C240   1.397       .  A
C235        H242   1.083       .  S
C236        C237   1.414       .  A
C237        C238   1.399       .  A
C237       Br244   1.922       .  S
C238        C239   1.404       .  A
C238        H243   1.084       .  S
C239        C240   1.412       .  A
C240       Br241   1.922       .  S
C245        C246   1.401       .  A
C245        C250   1.399       .  A
C245        H252   1.084       .  S
C246        C247   1.406       .  A
C247        C248   1.399       .  A
C247       Br254   1.920       .  S
C248        C249   1.404       .  A
C248        H253   1.084       .  S
C249        C250   1.411       .  A
C250       Br251   1.921       .  S
C255        C256   1.405       .  A
C255        C260   1.399       .  A
C255        H262   1.083       .  S
C256        C257   1.415       .  A
C257        C258   1.399       .  A
C257       Br264   1.922       .  S
C258        C259   1.404       .  A
C258        H263   1.084       .  S
C259        C260   1.413       .  A
C260       Br261   1.922       .  S
O265       Cu273   2.016       .  S
O265        C275   1.279       .  A
O266       Cu273   2.009       .  S
O266        C276   1.279       .  A
O267       Cu273   2.011       .  S
O267        C277   1.279       .  A
O268       Cu273   2.009       .  S
O268        C278   1.277       .  A
O269       Cu274   2.007       .  S
O269        C278   1.277       .  A
O270       Cu274   2.007       .  S
O270        C277   1.277       .  A
O271       Cu274   2.021       .  S
O271        C276   1.279       .  A
O272       Cu274   2.012       .  S
O272        C275   1.279       .  A
Cu273      Cu274   2.370       .  S
C275        C380   1.487       .  S
C276        C351   1.488       .  S
C277        C520   1.484       .  S
C278        C510   1.468       .  S
O279      Cu1343   2.014       .  S
O279       C1345   1.280       .  A
O280       Cu287   2.017       .  S
O280        C290   1.279       .  A
O281       Cu287   2.006   1_455  S
O281        C291   1.277       .  A
O282      Cu1343   2.005       .  S
O282        C292   1.277       .  A
O283      Cu1344   2.012       .  S
O283        C292   1.279       .  A
O284       Cu288   2.013   1_455  S
O284        C291   1.278       .  A
O285       Cu288   2.008       .  S
O285        C290   1.279       .  A
O286       Cu288   2.016       .  S
O286        C289   1.278       .  A
Cu287      O1335   2.014       .  S
Cu287      O1338   2.005       .  S
Cu287      Cu288   2.370       .  S
Cu288      O1339   2.012       .  S
C289       O1335   1.280       .  A
C289        C385   1.488       .  S
C290        C412   1.487       .  S
C291        C513   1.474       .  S
C292        C523   1.481       .  S
O293       Cu301   2.016       .  S
O293        C303   1.279       .  A
O294       Cu301   2.014       .  S
O294        C304   1.280       .  A
O295       Cu301   2.007       .  S
O295        C305   1.278       .  A
O296       Cu301   2.005       .  S
O296        C306   1.276       .  A
O297       Cu302   2.003       .  S
O297        C306   1.278       .  A
O298       Cu302   2.005       .  S
O298        C305   1.277       .  A
O299       Cu302   2.012       .  S
O299        C304   1.278       .  A
O300       Cu302   2.010       .  S
O300        C303   1.279       .  A
Cu301      Cu302   2.368       .  S
C303        C362   1.486       .  S
C304        C371   1.486       .  S
C305        C500   1.480       .  S
C306        C493   1.483       .  S
O307       Cu315   2.015       .  S
O307        C317   1.280       .  A
O308       Cu315   2.017       .  S
O308        C318   1.279       .  A
O309      Cu1371   2.005   1_455  S
O309        C319   1.277       .  A
O310       Cu315   2.002       .  S
O310        C320   1.277       .  A
O311       Cu316   2.007       .  S
O311        C320   1.278       .  A
O312      Cu1372   2.007   1_455  S
O312        C319   1.277       .  A
O313       Cu316   2.015       .  S
O313        C318   1.280       .  A
O314       Cu316   2.013       .  S
O314        C317   1.278       .  A
Cu315      O1365   2.005       .  S
Cu315      Cu316   2.370       .  S
Cu316      O1368   2.007       .  S
C317        C403   1.487       .  S
C318        C394   1.488       .  S
C319        C490   1.475       .  S
C320        C503   1.478       .  S
O321       Cu329   2.018       .  S
O321        C331   1.279       .  A
O322       Cu329   2.017       .  S
O322        C332   1.280       .  A
O323       Cu329   2.003       .  S
O323        C333   1.275       .  A
O324       Cu329   2.001       .  S
O324        C334   1.276       .  A
O325       Cu330   2.007       .  S
O325        C334   1.278       .  A
O326       Cu330   2.009       .  S
O326        C333   1.279       .  A
O327       Cu330   2.013       .  S
O327        C332   1.278       .  A
O328       Cu330   2.010       .  S
O328        C331   1.279       .  A
Cu329      Cu330   2.368       .  S
C331        C376   1.488       .  S
C332        C349   1.488       .  S
C333        C470   1.488       .  S
C334        C480   1.477       .  S
O335       Cu343   2.010       .  S
O335        C345   1.279       .  A
O336      Cu1399   2.011       .  S
O336        C346   1.278       .  A
O337      Cu1399   2.009       .  S
O337        C347   1.279       .  A
O338       Cu343   2.006       .  S
O338        C348   1.278       .  A
O339       Cu344   2.002       .  S
O339        C348   1.276       .  A
O340      Cu1400   2.004       .  S
O340        C347   1.276       .  A
O341      Cu1400   2.018       .  S
O341        C346   1.281       .  A
O342       Cu344   2.013       .  S
O342        C345   1.279       .  A
Cu343      O1392   2.011       .  S
Cu343      O1393   2.009   1_455  S
Cu343      Cu344   2.370       .  S
Cu344      O1396   2.004   1_455  S
Cu344      O1397   2.018       .  S
C345        C389   1.485       .  S
C346       C1472   1.488       .  S
C347        C483   1.481       .  S
C348        C473   1.471       .  S
C349        C354   1.408       .  A
C350        C351   1.402       .  A
C350        H355   1.083       .  S
C351        C352   1.409       .  A
C352        C353   1.419       .  A
C352        H356   1.078       .  S
C353        C888   1.520       .  S
C354        H357   1.078       .  S
C358        C434   1.488       .  S
C358        C359   1.409       .  A
C358        C363   1.401       .  A
C359        C360   1.418       .  A
C359        H364   1.079       .  S
C360        C881   1.517   1_545  S
C361        C362   1.407       .  A
C361        H365   1.078       .  S
C363        H366   1.083       .  S
C367        C433   1.487       .  S
C367        C368   1.407       .  A
C367        C372   1.401       .  A
C368        C369   1.418       .  A
C368        H373   1.078       .  S
C369        C378   1.517       .  S
C369        C370   1.417       .  A
C370        C371   1.407       .  A
C370        H374   1.078       .  S
C371        C372   1.401       .  A
C372        H375   1.083       .  S
C376        C377   1.407       .  A
C376        C381   1.402       .  A
C377        C378   1.418       .  A
C377        H382   1.078       .  S
C378        C379   1.417       .  A
C379        C380   1.407       .  A
C379        H383   1.078       .  S
C380        C381   1.401       .  A
C381        H384   1.083       .  S
C385       C1442   1.409       .  A
C385        C390   1.401       .  A
C386       C1441   1.409       .  A
C386        C387   1.419       .  A
C386        H391   1.078       .  S
C387        C926   1.517       .  S
C387        C388   1.416       .  A
C388       C1445   1.406       .  A
C388        H392   1.078       .  S
C389       C1444   1.406       .  A
C389        C390   1.401   1_455  A
C390        H393   1.083       .  S
C394        C395   1.402       .  A
C394        C399   1.408       .  A
C395        C396   1.402       .  A
C395        H400   1.083       .  S
C396        C446   1.487       .  S
C396        C397   1.407       .  A
C397        C398   1.416       .  A
C397        H401   1.078       .  S
C398        C915   1.517   1_545  S
C398        C399   1.418       .  A
C399        H402   1.078       .  S
C403        C408   1.408       .  A
C404        C405   1.401       .  A
C404        H409   1.083       .  S
C405        C445   1.488       .  S
C405        C406   1.409       .  A
C406        C407   1.419       .  A
C406        H410   1.078       .  S
C407        C414   1.520       .  S
C408        H411   1.078       .  S
C412       C1469   1.407       .  A
C412        C417   1.401       .  A
C413       C1468   1.407       .  A
C413        C414   1.417       .  A
C413        H418   1.078       .  S
C415       C1472   1.409       .  A
C415        H419   1.078       .  S
C416       C1402   1.488   1_655  S
C416       C1471   1.409   1_655  A
C417        H420   1.083       .  S
O421       Cu429   2.003       .  S
O421        C431   1.276       .  A
O422       Cu429   2.002       .  S
O422        C432   1.277       .  A
O423       Cu429   2.015       .  S
O423        C433   1.279       .  A
O424       Cu429   2.018       .  S
O424        C434   1.281       .  A
O425       Cu430   2.011       .  S
O425        C434   1.278       .  A
O426       Cu430   2.011       .  S
O426        C433   1.279       .  A
O427       Cu430   2.007       .  S
O427        C432   1.277       .  A
O428       Cu430   2.007       .  S
O428        C431   1.279       .  A
Cu429      Cu430   2.370       .  S
C431        C460   1.484       .  S
C432        C450   1.469       .  S
O435       Cu443   2.014       .  S
O435        C445   1.280       .  A
O436       Cu443   2.014       .  S
O436        C446   1.278       .  A
O437       Cu443   1.999       .  S
O437        C447   1.276       .  A
O438      Cu1499   1.999       .  S
O438        C448   1.275       .  A
O439      Cu1500   2.011       .  S
O439        C448   1.279       .  A
O440       Cu444   2.011       .  S
O440        C447   1.278       .  A
O441       Cu444   2.014       .  S
O441        C446   1.279       .  A
O442       Cu444   2.015       .  S
O442        C445   1.278       .  A
Cu443      O1494   1.999       .  S
Cu443      Cu444   2.368       .  S
Cu444      O1495   2.011       .  S
C447        C463   1.474       .  S
C448        C453   1.489       .  S
C449        C450   1.399       .  A
C449        C454   1.399       .  A
C449        H456   1.084       .  S
C450        C451   1.405       .  A
C451        C452   1.397       .  A
C451       Br458   1.921       .  S
C452        C453   1.409       .  A
C452        H457   1.083       .  S
C453        C454   1.421       .  A
C454       Br455   1.923       .  S
C459        C460   1.406       .  A
C459        C464   1.397       .  A
C459        H466   1.083       .  S
C460        C461   1.417       .  A
C461        C462   1.399       .  A
C461       Br468   1.922       .  S
C462        C463   1.402       .  A
C462        H467   1.084       .  S
C463        C464   1.409       .  A
C464       Br465   1.922       .  S
C469        C470   1.408       .  A
C469        C474   1.397       .  A
C469        H476   1.083       .  S
C470        C471   1.419       .  A
C471        C472   1.398       .  A
C471       Br478   1.923       .  S
C472        C473   1.400       .  A
C472        H477   1.084       .  S
C473        C474   1.407       .  A
C474       Br475   1.921       .  S
C479        C480   1.403       .  A
C479        C484   1.398       .  A
C479        H486   1.084       .  S
C480        C481   1.411       .  A
C481        C482   1.398       .  A
C481       Br488   1.922       .  S
C482        C483   1.405       .  A
C482        H487   1.083       .  S
C483        C484   1.414       .  A
C484       Br485   1.922       .  S
C489        C490   1.403       .  A
C489        C494   1.399       .  A
C489        H496   1.084       .  S
C490        C491   1.409       .  A
C491        C492   1.397       .  A
C491       Br498   1.921       .  S
C492        C493   1.406       .  A
C492        H497   1.083       .  S
C493        C494   1.416       .  A
C494       Br495   1.923       .  S
C499        C500   1.404       .  A
C499        C504   1.397       .  A
C499        H506   1.084       .  S
C500        C501   1.414       .  A
C501        C502   1.399       .  A
C501       Br508   1.922       .  S
C502        C503   1.404       .  A
C502        H507   1.084       .  S
C503        C504   1.412       .  A
C504       Br505   1.922       .  S
C509        C510   1.401       .  A
C509        C514   1.399       .  A
C509        H516   1.084       .  S
C510        C511   1.406       .  A
C511        C512   1.399       .  A
C511       Br518   1.919       .  S
C512        C513   1.404       .  A
C512        H517   1.084       .  S
C513        C514   1.411       .  A
C514       Br515   1.921       .  S
C519        C520   1.405       .  A
C519        C524   1.399       .  A
C519        H526   1.083       .  S
C520        C521   1.415       .  A
C521        C522   1.399       .  A
C521       Br528   1.922       .  S
C522        C523   1.404       .  A
C522        H527   1.084       .  S
C523        C524   1.413       .  A
C524       Br525   1.922       .  S
O529       Cu537   2.018       .  S
O529        C539   1.279       .  A
O530       Cu537   2.010       .  S
O530        C540   1.279       .  A
O531       Cu537   2.013       .  S
O531        C541   1.279       .  A
O532       Cu537   2.011       .  S
O532        C542   1.277       .  A
O533       Cu538   2.005       .  S
O533        C542   1.276       .  A
O534       Cu538   2.005       .  S
O534        C541   1.277       .  A
O535       Cu538   2.021       .  S
O535        C540   1.279       .  A
O536       Cu538   2.013       .  S
O536        C539   1.280       .  A
Cu537      Cu538   2.370       .  S
C539        C644   1.488       .  S
C540        C615   1.489       .  S
C541        C784   1.484       .  S
C542        C774   1.468       .  S
O543      Cu1607   2.010       .  S
O543       C1609   1.279       .  A
O544       Cu551   2.014       .  S
O544        C554   1.279       .  A
O545       Cu551   2.007   1_455  S
O545        C555   1.277       .  A
O546      Cu1607   2.007       .  S
O546        C556   1.277       .  A
O547      Cu1608   2.011       .  S
O547        C556   1.279       .  A
O548       Cu552   2.012   1_455  S
O548        C555   1.278       .  A
O549       Cu552   2.010       .  S
O549        C554   1.279       .  A
O550       Cu552   2.016       .  S
O550        C553   1.279       .  A
Cu551      O1599   2.010       .  S
Cu551      O1602   2.007       .  S
Cu551      Cu552   2.370       .  S
Cu552      O1603   2.011       .  S
C553       O1599   1.279       .  A
C553        C649   1.487       .  S
C554        C676   1.486       .  S
C555        C777   1.474       .  S
C556        C787   1.481       .  S
O557       Cu565   2.018       .  S
O557        C567   1.279       .  A
O558       Cu565   2.016       .  S
O558        C568   1.280       .  A
O559       Cu565   2.006       .  S
O559        C569   1.278       .  A
O560       Cu565   2.005       .  S
O560        C570   1.276       .  A
O561       Cu566   2.004       .  S
O561        C570   1.278       .  A
O562       Cu566   2.005       .  S
O562        C569   1.277       .  A
O563       Cu566   2.014       .  S
O563        C568   1.278       .  A
O564       Cu566   2.011       .  S
O564        C567   1.279       .  A
Cu565      Cu566   2.368       .  S
C567        C626   1.488       .  S
C568        C635   1.488       .  S
C569        C764   1.480       .  S
C570        C757   1.484       .  S
O571       Cu579   2.016       .  S
O571        C581   1.280       .  A
O572       Cu579   2.016       .  S
O572        C582   1.279       .  A
O573      Cu1635   2.006   1_455  S
O573        C583   1.277       .  A
O574       Cu579   2.002       .  S
O574        C584   1.277       .  A
O575       Cu580   2.006       .  S
O575        C584   1.278       .  A
O576      Cu1636   2.007   1_455  S
O576        C583   1.278       .  A
O577       Cu580   2.013       .  S
O577        C582   1.279       .  A
O578       Cu580   2.012       .  S
O578        C581   1.278       .  A
Cu579      O1629   2.006       .  S
Cu579      Cu580   2.370       .  S
Cu580      O1632   2.007       .  S
C581        C667   1.487       .  S
C582        C658   1.488       .  S
C583        C754   1.476       .  S
C584        C767   1.478       .  S
O585       Cu593   2.019       .  S
O585        C595   1.279       .  A
O586       Cu593   2.015       .  S
O586        C596   1.280       .  A
O587       Cu593   1.995       .  S
O587        C597   1.275       .  A
O588       Cu593   1.996       .  S
O588        C598   1.274       .  A
O589       Cu594   2.017       .  S
O589        C598   1.280       .  A
O590       Cu594   2.019       .  S
O590        C597   1.280       .  A
O591       Cu594   2.016       .  S
O591        C596   1.278       .  A
O592       Cu594   2.012       .  S
O592        C595   1.279       .  A
Cu593      Cu594   2.365       .  S
C595        C640   1.488       .  S
C596        C613   1.488       .  S
C597        C734   1.487       .  S
C598        C744   1.490       .  S
O599       Cu607   2.015       .  S
O599        C609   1.280       .  A
O600      Cu1663   2.013       .  S
O600        C610   1.278       .  A
O601      Cu1663   2.006       .  S
O601        C611   1.277       .  A
O602       Cu607   2.002       .  S
O602        C612   1.278       .  A
O603       Cu608   2.008       .  S
O603        C612   1.277       .  A
O604      Cu1664   2.008       .  S
O604        C611   1.277       .  A
O605      Cu1664   2.019       .  S
O605        C610   1.281       .  A
O606       Cu608   2.006       .  S
O606        C609   1.278       .  A
Cu607      O1656   2.013       .  S
Cu607      O1657   2.006   1_455  S
Cu607      Cu608   2.373       .  S
Cu608      O1660   2.008   1_455  S
Cu608      O1661   2.019       .  S
C609        C653   1.485       .  S
C610       C1736   1.489       .  S
C611        C747   1.469       .  S
C612        C737   1.473       .  S
C613        C878   1.401       .  A
C613        C618   1.407       .  A
C614        C877   1.401   1_554  A
C614        C615   1.402       .  A
C614        H619   1.083       .  S
C615        C616   1.408       .  A
C616        C617   1.418       .  A
C616        H620   1.078       .  S
C617        C882   1.418   1_554  A
C618        C881   1.418       .  A
C618        H621   1.078       .  S
C622        C698   1.488       .  S
C622        C623   1.409       .  A
C622        C627   1.401   1_554  A
C623        C624   1.418   1_554  A
C623        H628   1.078       .  S
C624        C889   1.418       .  A
C625        C888   1.418       .  A
C625        C626   1.408       .  A
C625        H629   1.078       .  S
C626        C891   1.401       .  A
C627        C890   1.401       .  A
C627        H630   1.083       .  S
C631        C697   1.487       .  S
C631        C632   1.408       .  A
C631        C636   1.402       .  A
C632        C633   1.418       .  A
C632        H637   1.078       .  S
C633        C642   1.518       .  S
C633        C634   1.418       .  A
C634        C635   1.408       .  A
C634        H638   1.078       .  S
C635        C636   1.401       .  A
C636        H639   1.083       .  S
C640        C641   1.408       .  A
C640        C645   1.402       .  A
C641        C642   1.418       .  A
C641        H646   1.078       .  S
C642        C643   1.418       .  A
C643        C644   1.408       .  A
C643        H647   1.078       .  S
C644        C645   1.402       .  A
C645        H648   1.083       .  S
C649       C1706   1.409       .  A
C649        C654   1.401       .  A
C650       C1705   1.409       .  A
C650        C651   1.418       .  A
C650        H655   1.078       .  S
C651        C652   1.416       .  A
C652       C1709   1.407       .  A
C652        H656   1.078       .  S
C653       C1708   1.407       .  A
C653        C654   1.400   1_455  A
C654        H657   1.083       .  S
C658        C659   1.401       .  A
C658        C663   1.407       .  A
C659        C660   1.402       .  A
C659        H664   1.083       .  S
C660        C710   1.488       .  S
C660        C661   1.408       .  A
C661        C662   1.417       .  A
C661        H665   1.078       .  S
C662        C663   1.418       .  A
C663        H666   1.078       .  S
C667        C932   1.400       .  A
C667        C672   1.408       .  A
C668        C931   1.400   1_554  A
C668        C669   1.401       .  A
C668        H673   1.083       .  S
C669        C709   1.489       .  S
C669        C670   1.410       .  A
C670        C671   1.420       .  A
C670        H674   1.078       .  S
C671        C678   1.520       .  S
C671        C936   1.417   1_554  A
C672        C935   1.417       .  A
C672        H675   1.078       .  S
C676       C1733   1.407       .  A
C676        C681   1.401       .  A
C677       C1732   1.407       .  A
C677        C678   1.416       .  A
C677        H682   1.078       .  S
C678        C943   1.419   1_554  A
C679        C942   1.418       .  A
C679       C1736   1.409       .  A
C679        H683   1.078       .  S
C680       C1666   1.489       .  S
C680       C1735   1.409       .  A
C680        C945   1.401   1_455  A
C681        C944   1.401   1_554  A
C681        H684   1.083   1_554  S
O685       Cu693   2.004       .  S
O685        C695   1.276       .  A
O686       Cu693   2.003       .  S
O686        C696   1.277       .  A
O687       Cu693   2.016       .  S
O687        C697   1.279       .  A
O688       Cu693   2.019       .  S
O688        C698   1.281       .  A
O689       Cu694   2.012       .  S
O689        C698   1.278       .  A
O690       Cu694   2.012       .  S
O690        C697   1.279       .  A
O691       Cu694   2.007       .  S
O691        C696   1.277       .  A
O692       Cu694   2.006       .  S
O692        C695   1.279       .  A
Cu693      Cu694   2.370       .  S
C695        C724   1.484       .  S
C696        C714   1.469       .  S
O699       Cu707   2.015       .  S
O699        C709   1.280       .  A
O700       Cu707   2.015       .  S
O700        C710   1.279       .  A
O701       Cu707   1.999       .  S
O701        C711   1.276       .  A
O702      Cu1763   1.998       .  S
O702        C712   1.275       .  A
O703      Cu1764   2.011       .  S
O703        C712   1.279       .  A
O704       Cu708   2.011       .  S
O704        C711   1.278       .  A
O705       Cu708   2.014       .  S
O705        C710   1.280       .  A
O706       Cu708   2.016       .  S
O706        C709   1.278       .  A
Cu707      O1758   1.998       .  S
Cu707      Cu708   2.368       .  S
Cu708      O1759   2.010       .  S
C711        C727   1.474       .  S
C712        C717   1.489       .  S
C713        C714   1.399       .  A
C713        C718   1.399       .  A
C713        H720   1.084       .  S
C714        C715   1.405       .  A
C715        C716   1.397       .  A
C715       Br722   1.921       .  S
C716        C717   1.409       .  A
C716        H721   1.083       .  S
C717        C718   1.421       .  A
C718       Br719   1.924       .  S
C723        C724   1.406       .  A
C723        C728   1.397       .  A
C723        H730   1.083       .  S
C724        C725   1.417       .  A
C725        C726   1.399       .  A
C725       Br732   1.922       .  S
C726        C727   1.402       .  A
C726        H731   1.084       .  S
C727        C728   1.409       .  A
C728       Br729   1.922       .  S
C733        C734   1.409       .  A
C733        C738   1.401       .  A
C733        H740   1.083       .  S
C734        C735   1.418       .  A
C735        C736   1.396       .  A
C735       Br742   1.923       .  S
C736        C737   1.399       .  A
C736        H741   1.084       .  S
C737        C738   1.409       .  A
C738       Br739   1.921       .  S
C743        C744   1.409       .  A
C743        C748   1.398       .  A
C743        H750   1.083       .  S
C744        C745   1.422       .  A
C745        C746   1.399       .  A
C745       Br752   1.924       .  S
C746        C747   1.398       .  A
C746        H751   1.084       .  S
C747        C748   1.405       .  A
C748       Br749   1.920       .  S
C753        C754   1.403       .  A
C753        C758   1.400       .  A
C753        H760   1.084       .  S
C754        C755   1.409       .  A
C755        C756   1.397       .  A
C755       Br762   1.921       .  S
C756        C757   1.406       .  A
C756        H761   1.083       .  S
C757        C758   1.416       .  A
C758       Br759   1.923       .  S
C763        C764   1.404       .  A
C763        C768   1.397       .  A
C763        H770   1.084       .  S
C764        C765   1.414       .  A
C765        C766   1.399       .  A
C765       Br772   1.922       .  S
C766        C767   1.404       .  A
C766        H771   1.084       .  S
C767        C768   1.412       .  A
C768       Br769   1.922       .  S
C773        C774   1.401       .  A
C773        C778   1.399       .  A
C773        H780   1.084       .  S
C774        C775   1.406       .  A
C775        C776   1.400       .  A
C775       Br782   1.919       .  S
C776        C777   1.404       .  A
C776        H781   1.084       .  S
C777        C778   1.411       .  A
C778       Br779   1.921       .  S
C783        C784   1.406       .  A
C783        C788   1.400       .  A
C783        H790   1.083       .  S
C784        C785   1.415       .  A
C785        C786   1.399       .  A
C785       Br792   1.922       .  S
C786        C787   1.403       .  A
C786        H791   1.084       .  S
C787        C788   1.413       .  A
C788       Br789   1.922       .  S
O793       Cu801   2.016       .  S
O793        C803   1.279       .  A
O794       Cu801   2.009       .  S
O794        C804   1.279       .  A
O795       Cu801   2.013       .  S
O795        C805   1.279       .  A
O796       Cu801   2.011       .  S
O796        C806   1.278       .  A
O797       Cu802   2.005       .  S
O797        C806   1.276       .  A
O798       Cu802   2.005       .  S
O798        C805   1.277       .  A
O799       Cu802   2.020       .  S
O799        C804   1.279       .  A
O800       Cu802   2.012       .  S
O800        C803   1.279       .  A
Cu801      Cu802   2.370       .  S
C803        C908   1.488       .  S
C804        C879   1.488       .  S
C805       C1048   1.484       .  S
C806       C1038   1.468       .  S
O807      Cu1871   2.011       .  S
O807       C1873   1.279       .  A
O808       Cu815   2.015       .  S
O808        C818   1.279       .  A
O809       Cu815   2.007   1_455  S
O809        C819   1.277       .  A
O810      Cu1871   2.007       .  S
O810        C820   1.277       .  A
O811      Cu1872   2.011       .  S
O811        C820   1.279       .  A
O812       Cu816   2.011   1_455  S
O812        C819   1.278       .  A
O813       Cu816   2.011       .  S
O813        C818   1.279       .  A
O814       Cu816   2.017       .  S
O814        C817   1.279       .  A
Cu815      O1863   2.011       .  S
Cu815      O1866   2.007       .  S
Cu815      Cu816   2.370       .  S
Cu816      O1867   2.011       .  S
C817       O1863   1.279       .  A
C817        C913   1.487       .  S
C818        C940   1.487       .  S
C819       C1041   1.474       .  S
C820       C1051   1.481       .  S
O821       Cu829   2.018       .  S
O821        C831   1.279       .  A
O822       Cu829   2.015       .  S
O822        C832   1.280       .  A
O823       Cu829   2.006       .  S
O823        C833   1.278       .  A
O824       Cu829   2.005       .  S
O824        C834   1.276       .  A
O825       Cu830   2.004       .  S
O825        C834   1.278       .  A
O826       Cu830   2.005       .  S
O826        C833   1.277       .  A
O827       Cu830   2.014       .  S
O827        C832   1.278       .  A
O828       Cu830   2.012       .  S
O828        C831   1.279       .  A
Cu829      Cu830   2.368       .  S
C831        C890   1.488       .  S
C832        C899   1.488       .  S
C833       C1028   1.480       .  S
C834       C1021   1.484       .  S
O835       Cu843   2.015       .  S
O835        C845   1.280       .  A
O836       Cu843   2.015       .  S
O836        C846   1.279       .  A
O837      Cu1899   2.006   1_455  S
O837        C847   1.277       .  A
O838       Cu843   2.002       .  S
O838        C848   1.277       .  A
O839       Cu844   2.006       .  S
O839        C848   1.278       .  A
O840      Cu1900   2.007   1_455  S
O840        C847   1.277       .  A
O841       Cu844   2.014       .  S
O841        C846   1.280       .  A
O842       Cu844   2.011       .  S
O842        C845   1.278       .  A
Cu843      O1893   2.006       .  S
Cu843      Cu844   2.370       .  S
Cu844      O1896   2.007       .  S
C845        C931   1.486       .  S
C846        C922   1.488       .  S
C847       C1018   1.476       .  S
C848       C1031   1.478       .  S
O849       Cu857   2.018       .  S
O849        C859   1.279       .  A
O850       Cu857   2.015       .  S
O850        C860   1.280       .  A
O851       Cu857   1.998       .  S
O851        C861   1.275       .  A
O852       Cu857   1.997       .  S
O852        C862   1.275       .  A
O853       Cu858   2.012       .  S
O853        C862   1.279       .  A
O854       Cu858   2.014       .  S
O854        C861   1.279       .  A
O855       Cu858   2.017       .  S
O855        C860   1.279       .  A
O856       Cu858   2.011       .  S
O856        C859   1.279       .  A
Cu857      Cu858   2.366       .  S
C859        C904   1.487       .  S
C860        C877   1.488       .  S
C861        C998   1.485       .  S
C862       C1008   1.486       .  S
O863       Cu871   2.014       .  S
O863        C873   1.280       .  A
O864      Cu1927   2.015       .  S
O864        C874   1.278       .  A
O865      Cu1927   2.006       .  S
O865        C875   1.277       .  A
O866       Cu871   2.002       .  S
O866        C876   1.277       .  A
O867       Cu872   2.006       .  S
O867        C876   1.277       .  A
O868      Cu1928   2.006       .  S
O868        C875   1.277       .  A
O869      Cu1928   2.018       .  S
O869        C874   1.280       .  A
O870       Cu872   2.007       .  S
O870        C873   1.278       .  A
Cu871      O1920   2.015       .  S
Cu871      O1921   2.005   1_455  S
Cu871      Cu872   2.372       .  S
Cu872      O1924   2.006   1_455  S
Cu872      O1925   2.018       .  S
C873        C917   1.485       .  S
C874       C2000   1.489       .  S
C875       C1011   1.473       .  S
C876       C1001   1.474       .  S
C877        C882   1.407       .  A
C878        C879   1.402       .  A
C878        H883   1.083       .  S
C879        C880   1.408       .  A
C880        C881   1.418       .  A
C880        H884   1.079       .  S
C882        H885   1.078       .  S
C886        C962   1.489       .  S
C886        C887   1.409       .  A
C886        C891   1.401       .  A
C887        C888   1.418       .  A
C887        H892   1.078       .  S
C889        C890   1.408       .  A
C889        H893   1.078       .  S
C891        H894   1.083       .  S
C895        C961   1.487       .  S
C895        C896   1.408       .  A
C895        C900   1.402       .  A
C896        C897   1.418       .  A
C896        H901   1.078       .  S
C897        C906   1.518       .  S
C897        C898   1.418       .  A
C898        C899   1.408       .  A
C898        H902   1.078       .  S
C899        C900   1.401       .  A
C900        H903   1.083       .  S
C904        C905   1.407       .  A
C904        C909   1.401       .  A
C905        C906   1.418       .  A
C905        H910   1.078       .  S
C906        C907   1.418       .  A
C907        C908   1.408       .  A
C907        H911   1.078       .  S
C908        C909   1.401       .  A
C909        H912   1.083       .  S
C913       C1970   1.409       .  A
C913        C918   1.401       .  A
C914       C1969   1.409       .  A
C914        C915   1.418       .  A
C914        H919   1.078       .  S
C915        C916   1.416       .  A
C916       C1973   1.407       .  A
C916        H920   1.078       .  S
C917       C1972   1.407       .  A
C917        C918   1.400   1_455  A
C918        H921   1.083       .  S
C922        C923   1.401       .  A
C922        C927   1.407       .  A
C923        C924   1.402       .  A
C923        H928   1.083       .  S
C924        C974   1.487       .  S
C924        C925   1.408       .  A
C925        C926   1.416       .  A
C925        H929   1.078       .  S
C926        C927   1.418       .  A
C927        H930   1.078       .  S
C931        C936   1.407       .  A
C932        C933   1.401       .  A
C932        H937   1.083       .  S
C933        C973   1.488       .  S
C933        C934   1.409       .  A
C934        C935   1.419       .  A
C934        H938   1.078       .  S
C935        C942   1.519       .  S
C936        H939   1.078       .  S
C940       C1997   1.408       .  A
C940        C945   1.401       .  A
C941       C1996   1.408       .  A
C941        C942   1.417       .  A
C941        H946   1.078       .  S
C943       C2000   1.409       .  A
C943        H947   1.078       .  S
C944       C1930   1.489   1_655  S
C944       C1999   1.409   1_655  A
C945        H948   1.083       .  S
O949       Cu957   2.003       .  S
O949        C959   1.276       .  A
O950       Cu957   2.003       .  S
O950        C960   1.277       .  A
O951       Cu957   2.016       .  S
O951        C961   1.279       .  A
O952       Cu957   2.020       .  S
O952        C962   1.281       .  A
O953       Cu958   2.012       .  S
O953        C962   1.278       .  A
O954       Cu958   2.012       .  S
O954        C961   1.279       .  A
O955       Cu958   2.007       .  S
O955        C960   1.277       .  A
O956       Cu958   2.007       .  S
O956        C959   1.279       .  A
Cu957      Cu958   2.370       .  S
C959        C988   1.484       .  S
C960        C978   1.469       .  S
O963       Cu971   2.014       .  S
O963        C973   1.280       .  A
O964       Cu971   2.014       .  S
O964        C974   1.278       .  A
O965       Cu971   1.999       .  S
O965        C975   1.276       .  A
O966      Cu2027   1.999       .  S
O966        C976   1.275       .  A
O967      Cu2028   2.011       .  S
O967        C976   1.279       .  A
O968       Cu972   2.011       .  S
O968        C975   1.278       .  A
O969       Cu972   2.014       .  S
O969        C974   1.279       .  A
O970       Cu972   2.015       .  S
O970        C973   1.278       .  A
Cu971      O2022   1.999       .  S
Cu971      Cu972   2.368       .  S
Cu972      O2023   2.011       .  S
C975        C991   1.474       .  S
C976        C981   1.489       .  S
C977        C978   1.399       .  A
C977        C982   1.399       .  A
C977        H984   1.084       .  S
C978        C979   1.405       .  A
C979        C980   1.397       .  A
C979       Br986   1.921       .  S
C980        C981   1.409       .  A
C980        H985   1.083       .  S
C981        C982   1.421       .  A
C982       Br983   1.923       .  S
C987        C988   1.406       .  A
C987        C992   1.397       .  A
C987        H994   1.083       .  S
C988        C989   1.417       .  A
C989        C990   1.399       .  A
C989       Br996   1.922       .  S
C990        C991   1.402       .  A
C990        H995   1.084       .  S
C991        C992   1.409       .  A
C992       Br993   1.922       .  S
C997        C998   1.407       .  A
C997       C1002   1.399       .  A
C997       H1004   1.083       .  S
C998        C999   1.417       .  A
C999       C1000   1.397       .  A
C999      Br1006   1.923       .  S
C1000      C1001   1.401       .  A
C1000      H1005   1.084       .  S
C1001      C1002   1.409       .  A
C1002     Br1003   1.921       .  S
C1007      C1008   1.407       .  A
C1007      C1012   1.398       .  A
C1007      H1014   1.083       .  S
C1008      C1009   1.418       .  A
C1009      C1010   1.398       .  A
C1009     Br1016   1.923       .  S
C1010      C1011   1.400       .  A
C1010      H1015   1.084       .  S
C1011      C1012   1.408       .  A
C1012     Br1013   1.921       .  S
C1017      C1018   1.403       .  A
C1017      C1022   1.399       .  A
C1017      H1024   1.084       .  S
C1018      C1019   1.409       .  A
C1019      C1020   1.397       .  A
C1019     Br1026   1.921       .  S
C1020      C1021   1.406       .  A
C1020      H1025   1.083       .  S
C1021      C1022   1.416       .  A
C1022     Br1023   1.923       .  S
C1027      C1028   1.404       .  A
C1027      C1032   1.397       .  A
C1027      H1034   1.084       .  S
C1028      C1029   1.413       .  A
C1029      C1030   1.399       .  A
C1029     Br1036   1.922       .  S
C1030      C1031   1.404       .  A
C1030      H1035   1.084       .  S
C1031      C1032   1.412       .  A
C1032     Br1033   1.922       .  S
C1037      C1038   1.401       .  A
C1037      C1042   1.399       .  A
C1037      H1044   1.084       .  S
C1038      C1039   1.406       .  A
C1039      C1040   1.400       .  A
C1039     Br1046   1.919       .  S
C1040      C1041   1.404       .  A
C1040      H1045   1.084       .  S
C1041      C1042   1.411       .  A
C1042     Br1043   1.921       .  S
C1047      C1048   1.406       .  A
C1047      C1052   1.400       .  A
C1047      H1054   1.083       .  S
C1048      C1049   1.415       .  A
C1049      C1050   1.399       .  A
C1049     Br1056   1.922       .  S
C1050      C1051   1.403       .  A
C1050      H1055   1.084       .  S
C1051      C1052   1.412       .  A
C1052     Br1053   1.922       .  S
O1057     Cu1065   2.016       .  S
O1057      C1067   1.279       .  A
O1058     Cu1065   2.009       .  S
O1058      C1068   1.279       .  A
O1059     Cu1065   2.011       .  S
O1059      C1069   1.279       .  A
O1060     Cu1065   2.009       .  S
O1060      C1070   1.277       .  A
O1061     Cu1066   2.007       .  S
O1061      C1070   1.277       .  A
O1062     Cu1066   2.007       .  S
O1062      C1069   1.277       .  A
O1063     Cu1066   2.021       .  S
O1063      C1068   1.279       .  A
O1064     Cu1066   2.012       .  S
O1064      C1067   1.279       .  A
Cu1065    Cu1066   2.370       .  S
C1067      C1172   1.488       .  S
C1068      C1143   1.488       .  S
C1069      C1312   1.484       .  S
C1070      C1302   1.468       .  S
O1072     Cu1079   2.015       .  S
O1072      C1082   1.279       .  A
O1073     Cu1079   2.006       .  S
O1073      C1083   1.277       .  A
O1074      C1084   1.277       .  A
O1075      C1084   1.279       .  A
O1076     Cu1080   2.013       .  S
O1076      C1083   1.278       .  A
O1077     Cu1080   2.007       .  S
O1077      C1082   1.279       .  A
O1078     Cu1080   2.015       .  S
O1078      C1081   1.278       .  A
Cu1079    Cu1080   2.370       .  S
C1081      C1177   1.487       .  S
C1082      C1204   1.485       .  S
C1083      C1305   1.474       .  S
C1084      C1315   1.481       .  S
O1085     Cu1093   2.016       .  S
O1085      C1095   1.279       .  A
O1086     Cu1093   2.014       .  S
O1086      C1096   1.280       .  A
O1087     Cu1093   2.006       .  S
O1087      C1097   1.278       .  A
O1088     Cu1093   2.005       .  S
O1088      C1098   1.276       .  A
O1089     Cu1094   2.004       .  S
O1089      C1098   1.278       .  A
O1090     Cu1094   2.006       .  S
O1090      C1097   1.277       .  A
O1091     Cu1094   2.012       .  S
O1091      C1096   1.278       .  A
O1092     Cu1094   2.009       .  S
O1092      C1095   1.279       .  A
Cu1093    Cu1094   2.368       .  S
C1095      C1154   1.486       .  S
C1096      C1163   1.486       .  S
C1097      C1292   1.481       .  S
C1098      C1285   1.483       .  S
O1099     Cu1107   2.016       .  S
O1099      C1109   1.280       .  A
O1100     Cu1107   2.017       .  S
O1100      C1110   1.279       .  A
O1101      C1111   1.277       .  A
O1102     Cu1107   2.002       .  S
O1102      C1112   1.277       .  A
O1103     Cu1108   2.007       .  S
O1103      C1112   1.278       .  A
O1104      C1111   1.277       .  A
O1105     Cu1108   2.015       .  S
O1105      C1110   1.280       .  A
O1106     Cu1108   2.013       .  S
O1106      C1109   1.278       .  A
Cu1107    Cu1108   2.370       .  S
C1109      C1195   1.487       .  S
C1110      C1186   1.488       .  S
C1111      C1282   1.476       .  S
C1112      C1295   1.478       .  S
O1113     Cu1121   2.017       .  S
O1113      C1123   1.279       .  A
O1114     Cu1121   2.018       .  S
O1114      C1124   1.280       .  A
O1115     Cu1121   2.002       .  S
O1115      C1125   1.275       .  A
O1116     Cu1121   2.001       .  S
O1116      C1126   1.276       .  A
O1117     Cu1122   2.007       .  S
O1117      C1126   1.278       .  A
O1118     Cu1122   2.010       .  S
O1118      C1125   1.279       .  A
O1119     Cu1122   2.013       .  S
O1119      C1124   1.278       .  A
O1120     Cu1122   2.011       .  S
O1120      C1123   1.279       .  A
Cu1121    Cu1122   2.368       .  S
C1123      C1168   1.487       .  S
C1124      C1141   1.488       .  S
C1125      C1262   1.489       .  S
C1126      C1272   1.475       .  S
O1127     Cu1135   2.011       .  S
O1127      C1137   1.279       .  A
O1128      C1138   1.278       .  A
O1129      C1139   1.279       .  A
O1130     Cu1135   2.007       .  S
O1130      C1140   1.278       .  A
O1131     Cu1136   2.001       .  S
O1131      C1140   1.276       .  A
O1132      C1139   1.276       .  A
O1133      C1138   1.280       .  A
O1134     Cu1136   2.012       .  S
O1134      C1137   1.278       .  A
Cu1135    Cu1136   2.370       .  S
C1137      C1181   1.485       .  S
C1139      C1275   1.483       .  S
C1140      C1265   1.470       .  S
C1141      C1406   1.400       .  A
C1141      C1146   1.408       .  A
C1142      C1405   1.400   1_554  A
C1142      C1143   1.402       .  A
C1142      H1147   1.083       .  S
C1143      C1144   1.409       .  A
C1144      C1145   1.419       .  A
C1144      H1148   1.078       .  S
C1145      C1680   1.520   1_554  S
C1145      C1410   1.418   1_554  A
C1146      C1409   1.418       .  A
C1146      H1149   1.078       .  S
C1150      C1226   1.488       .  S
C1150      C1151   1.409       .  A
C1150      C1155   1.401   1_554  A
C1151      C1152   1.417   1_554  A
C1151      H1156   1.078       .  S
C1152      C1673   1.518   1_546  S
C1152      C1417   1.417       .  A
C1153      C1416   1.417       .  A
C1153      C1154   1.407       .  A
C1153      H1157   1.078       .  S
C1154      C1419   1.401       .  A
C1155      C1418   1.401       .  A
C1155      H1158   1.083       .  S
C1159      C1225   1.486       .  S
C1159      C1160   1.407       .  A
C1159      C1164   1.401       .  A
C1160      C1161   1.417       .  A
C1160      H1165   1.078       .  S
C1161      C1170   1.518       .  S
C1161      C1162   1.417       .  A
C1162      C1163   1.407       .  A
C1162      H1166   1.078       .  S
C1163      C1164   1.400       .  A
C1164      H1167   1.083       .  S
C1168      C1169   1.407       .  A
C1168      C1173   1.401       .  A
C1169      C1170   1.418       .  A
C1169      H1174   1.078       .  S
C1170      C1171   1.418       .  A
C1171      C1172   1.408       .  A
C1171      H1175   1.078       .  S
C1172      C1173   1.401       .  A
C1173      H1176   1.083       .  S
C1177      C1182   1.401       .  A
C1178      C1179   1.418       .  A
C1178      H1183   1.078       .  S
C1179      C1718   1.517   1_655  S
C1179      C1180   1.416   1_655  A
C1180      H1184   1.078       .  S
C1181      C1182   1.400       .  A
C1182      H1185   1.083       .  S
C1186      C1187   1.402   1_655  A
C1186      C1191   1.408       .  A
C1187      C1188   1.402       .  A
C1187      H1192   1.083       .  S
C1188      C1238   1.488       .  S
C1188      C1189   1.408       .  A
C1189      C1190   1.417       .  A
C1189      H1193   1.078       .  S
C1190      C1707   1.517   1_445  S
C1190      C1191   1.418   1_455  A
C1191      H1194   1.078       .  S
C1195      C1460   1.400   1_655  A
C1195      C1200   1.408       .  A
C1196      C1459   1.401   1_454  A
C1196      C1197   1.401       .  A
C1196      H1201   1.083       .  S
C1197      C1237   1.489       .  S
C1197      C1198   1.409       .  A
C1198      C1199   1.419   1_455  A
C1198      H1202   1.078       .  S
C1199      C1206   1.520       .  S
C1199      C1464   1.417   1_554  A
C1200      C1463   1.418       .  A
C1200      H1203   1.078       .  S
C1204      C1209   1.401       .  A
C1205      C1206   1.417       .  A
C1205      H1210   1.078       .  S
C1206      C1471   1.419   1_654  A
C1207      C1470   1.419   1_455  A
C1207      H1211   1.078       .  S
C1208      C1473   1.400       .  A
C1209      C1472   1.400   1_554  A
C1209      H1212   1.083       .  S
O1213     Cu1221   2.003       .  S
O1213      C1223   1.276       .  A
O1214     Cu1221   2.002       .  S
O1214      C1224   1.276       .  A
O1215     Cu1221   2.015       .  S
O1215      C1225   1.279       .  A
O1216     Cu1221   2.018       .  S
O1216      C1226   1.281       .  A
O1217     Cu1222   2.011       .  S
O1217      C1226   1.278       .  A
O1218     Cu1222   2.010       .  S
O1218      C1225   1.279       .  A
O1219     Cu1222   2.007       .  S
O1219      C1224   1.277       .  A
O1220     Cu1222   2.007       .  S
O1220      C1223   1.279       .  A
Cu1221    Cu1222   2.370       .  S
C1223      C1252   1.484       .  S
C1224      C1242   1.469       .  S
O1227     Cu1235   2.015       .  S
O1227      C1237   1.280       .  A
O1228     Cu1235   2.016       .  S
O1228      C1238   1.279       .  A
O1229     Cu1235   1.999   1_655  S
O1229      C1239   1.276       .  A
O1230      C1240   1.275       .  A
O1231      C1240   1.279       .  A
O1232     Cu1236   2.011   1_655  S
O1232      C1239   1.278       .  A
O1233     Cu1236   2.015       .  S
O1233      C1238   1.280       .  A
O1234     Cu1236   2.017       .  S
O1234      C1237   1.278       .  A
Cu1235    Cu1236   2.368       .  S
C1239      C1255   1.474       .  S
C1240      C1245   1.489       .  S
C1241      C1242   1.399       .  A
C1241      C1246   1.399       .  A
C1241      H1248   1.084       .  S
C1242      C1243   1.405       .  A
C1243      C1244   1.397       .  A
C1243     Br1250   1.921       .  S
C1244      C1245   1.409       .  A
C1244      H1249   1.083       .  S
C1245      C1246   1.421       .  A
C1246     Br1247   1.923       .  S
C1251      C1252   1.406       .  A
C1251      C1256   1.397       .  A
C1251      H1258   1.083       .  S
C1252      C1253   1.417       .  A
C1253      C1254   1.399       .  A
C1253     Br1260   1.922       .  S
C1254      C1255   1.402       .  A
C1254      H1259   1.084       .  S
C1255      C1256   1.409       .  A
C1256     Br1257   1.922       .  S
C1261      C1262   1.409       .  A
C1261      C1266   1.398       .  A
C1261      H1268   1.083       .  S
C1262      C1263   1.420       .  A
C1263      C1264   1.398       .  A
C1263     Br1270   1.923       .  S
C1264      C1265   1.399       .  A
C1264      H1269   1.084       .  S
C1265      C1266   1.406       .  A
C1266     Br1267   1.921       .  S
C1271      C1272   1.402       .  A
C1271      C1276   1.398       .  A
C1271      H1278   1.084       .  S
C1272      C1273   1.410       .  A
C1273      C1274   1.398       .  A
C1273     Br1280   1.922       .  S
C1274      C1275   1.406       .  A
C1274      H1279   1.083       .  S
C1275      C1276   1.416       .  A
C1276     Br1277   1.922       .  S
C1281      C1282   1.403       .  A
C1281      C1286   1.399       .  A
C1281      H1288   1.084       .  S
C1282      C1283   1.409       .  A
C1283      C1284   1.397       .  A
C1283     Br1290   1.921       .  S
C1284      C1285   1.406       .  A
C1284      H1289   1.083       .  S
C1285      C1286   1.416       .  A
C1286     Br1287   1.923       .  S
C1291      C1292   1.405       .  A
C1291      C1296   1.397       .  A
C1291      H1298   1.083       .  S
C1292      C1293   1.414       .  A
C1293      C1294   1.399       .  A
C1293     Br1300   1.922       .  S
C1294      C1295   1.404       .  A
C1294      H1299   1.084       .  S
C1295      C1296   1.412       .  A
C1296     Br1297   1.922       .  S
C1301      C1302   1.401       .  A
C1301      C1306   1.399       .  A
C1301      H1308   1.084       .  S
C1302      C1303   1.406       .  A
C1303      C1304   1.399       .  A
C1303     Br1310   1.920       .  S
C1304      C1305   1.404       .  A
C1304      H1309   1.084       .  S
C1305      C1306   1.411       .  A
C1306     Br1307   1.921       .  S
C1311      C1312   1.405       .  A
C1311      C1316   1.399       .  A
C1311      H1318   1.083       .  S
C1312      C1313   1.415       .  A
C1313      C1314   1.399       .  A
C1313     Br1320   1.922       .  S
C1314      C1315   1.404       .  A
C1314      H1319   1.084       .  S
C1315      C1316   1.413       .  A
C1316     Br1317   1.922       .  S
O1321     Cu1329   2.016       .  S
O1321      C1331   1.279       .  A
O1322     Cu1329   2.009       .  S
O1322      C1332   1.279       .  A
O1323     Cu1329   2.011       .  S
O1323      C1333   1.279       .  A
O1324     Cu1329   2.009       .  S
O1324      C1334   1.277       .  A
O1325     Cu1330   2.007       .  S
O1325      C1334   1.277       .  A
O1326     Cu1330   2.007       .  S
O1326      C1333   1.277       .  A
O1327     Cu1330   2.021       .  S
O1327      C1332   1.279       .  A
O1328     Cu1330   2.012       .  S
O1328      C1331   1.279       .  A
Cu1329    Cu1330   2.370       .  S
C1331      C1436   1.487       .  S
C1332      C1407   1.488       .  S
C1333      C1576   1.484       .  S
C1334      C1566   1.468       .  S
O1336     Cu1343   2.017       .  S
O1336      C1346   1.279       .  A
O1337     Cu1343   2.006       .  S
O1337      C1347   1.277       .  A
O1338      C1348   1.277       .  A
O1339      C1348   1.279       .  A
O1340     Cu1344   2.013       .  S
O1340      C1347   1.278       .  A
O1341     Cu1344   2.008       .  S
O1341      C1346   1.279       .  A
O1342     Cu1344   2.016       .  S
O1342      C1345   1.278       .  A
Cu1343    Cu1344   2.370       .  S
C1345      C1441   1.488       .  S
C1346      C1468   1.487       .  S
C1347      C1569   1.474       .  S
C1348      C1579   1.481       .  S
O1349     Cu1357   2.015       .  S
O1349      C1359   1.279       .  A
O1350     Cu1357   2.014       .  S
O1350      C1360   1.280       .  A
O1351     Cu1357   2.007       .  S
O1351      C1361   1.278       .  A
O1352     Cu1357   2.005       .  S
O1352      C1362   1.276       .  A
O1353     Cu1358   2.003       .  S
O1353      C1362   1.278       .  A
O1354     Cu1358   2.005       .  S
O1354      C1361   1.277       .  A
O1355     Cu1358   2.012       .  S
O1355      C1360   1.278       .  A
O1356     Cu1358   2.010       .  S
O1356      C1359   1.279       .  A
Cu1357    Cu1358   2.368       .  S
C1359      C1418   1.486       .  S
C1360      C1427   1.486       .  S
C1361      C1556   1.480       .  S
C1362      C1549   1.483       .  S
O1363     Cu1371   2.015       .  S
O1363      C1373   1.280       .  A
O1364     Cu1371   2.017       .  S
O1364      C1374   1.279       .  A
O1365      C1375   1.277       .  A
O1366     Cu1371   2.002       .  S
O1366      C1376   1.277       .  A
O1367     Cu1372   2.007       .  S
O1367      C1376   1.278       .  A
O1368      C1375   1.277       .  A
O1369     Cu1372   2.015       .  S
O1369      C1374   1.280       .  A
O1370     Cu1372   2.013       .  S
O1370      C1373   1.278       .  A
Cu1371    Cu1372   2.370       .  S
C1373      C1459   1.487       .  S
C1374      C1450   1.488       .  S
C1375      C1546   1.475       .  S
C1376      C1559   1.478       .  S
O1377     Cu1385   2.018       .  S
O1377      C1387   1.279       .  A
O1378     Cu1385   2.017       .  S
O1378      C1388   1.280       .  A
O1379     Cu1385   2.003       .  S
O1379      C1389   1.275       .  A
O1380     Cu1385   2.001       .  S
O1380      C1390   1.276       .  A
O1381     Cu1386   2.007       .  S
O1381      C1390   1.278       .  A
O1382     Cu1386   2.009       .  S
O1382      C1389   1.279       .  A
O1383     Cu1386   2.013       .  S
O1383      C1388   1.278       .  A
O1384     Cu1386   2.010       .  S
O1384      C1387   1.279       .  A
Cu1385    Cu1386   2.368       .  S
C1387      C1432   1.488       .  S
C1388      C1405   1.488       .  S
C1389      C1526   1.487       .  S
C1390      C1536   1.477       .  S
O1391     Cu1399   2.010       .  S
O1391      C1401   1.279       .  A
O1392      C1402   1.278       .  A
O1393      C1403   1.279       .  A
O1394     Cu1399   2.006       .  S
O1394      C1404   1.278       .  A
O1395     Cu1400   2.002       .  S
O1395      C1404   1.276       .  A
O1396      C1403   1.276       .  A
O1397      C1402   1.281       .  A
O1398     Cu1400   2.013       .  S
O1398      C1401   1.279       .  A
Cu1399    Cu1400   2.370       .  S
C1401      C1445   1.485       .  S
C1403      C1539   1.481       .  S
C1404      C1529   1.471       .  S
C1405      C1410   1.408       .  A
C1406      C1407   1.402       .  A
C1406      H1411   1.083       .  S
C1407      C1408   1.409       .  A
C1408      C1409   1.419       .  A
C1408      H1412   1.078       .  S
C1409      C1944   1.520       .  S
C1410      H1413   1.078       .  S
C1414      C1490   1.488       .  S
C1414      C1415   1.409       .  A
C1414      C1419   1.401       .  A
C1415      C1416   1.418       .  A
C1415      H1420   1.079       .  S
C1416      C1937   1.517   1_545  S
C1417      C1418   1.407       .  A
C1417      H1421   1.078       .  S
C1419      H1422   1.083       .  S
C1423      C1489   1.487       .  S
C1423      C1424   1.407       .  A
C1423      C1428   1.401       .  A
C1424      C1425   1.418       .  A
C1424      H1429   1.078       .  S
C1425      C1434   1.517       .  S
C1425      C1426   1.417       .  A
C1426      C1427   1.407       .  A
C1426      H1430   1.078       .  S
C1427      C1428   1.401       .  A
C1428      H1431   1.083       .  S
C1432      C1433   1.407       .  A
C1432      C1437   1.402       .  A
C1433      C1434   1.418       .  A
C1433      H1438   1.078       .  S
C1434      C1435   1.417       .  A
C1435      C1436   1.407       .  A
C1435      H1439   1.078       .  S
C1436      C1437   1.401       .  A
C1437      H1440   1.083       .  S
C1441      C1446   1.401       .  A
C1442      C1443   1.419       .  A
C1442      H1447   1.078       .  S
C1443      C1982   1.517   1_655  S
C1443      C1444   1.416   1_655  A
C1444      H1448   1.078       .  S
C1445      C1446   1.401       .  A
C1446      H1449   1.083       .  S
C1450      C1451   1.402   1_655  A
C1450      C1455   1.408       .  A
C1451      C1452   1.402       .  A
C1451      H1456   1.083       .  S
C1452      C1502   1.487       .  S
C1452      C1453   1.407       .  A
C1453      C1454   1.416       .  A
C1453      H1457   1.078       .  S
C1454      C1971   1.517   1_445  S
C1454      C1455   1.418   1_455  A
C1455      H1458   1.079       .  S
C1459      C1464   1.408       .  A
C1460      C1461   1.401       .  A
C1460      H1465   1.083       .  S
C1461      C1501   1.488       .  S
C1461      C1462   1.409       .  A
C1462      C1463   1.419   1_455  A
C1462      H1466   1.078       .  S
C1463      C1470   1.520       .  S
C1464      H1467   1.078       .  S
C1468      C1473   1.401       .  A
C1469      C1470   1.417       .  A
C1469      H1474   1.078       .  S
C1471      H1475   1.078       .  S
C1473      H1476   1.083       .  S
O1477     Cu1485   2.003       .  S
O1477      C1487   1.276       .  A
O1478     Cu1485   2.002       .  S
O1478      C1488   1.277       .  A
O1479     Cu1485   2.015       .  S
O1479      C1489   1.279       .  A
O1480     Cu1485   2.018       .  S
O1480      C1490   1.281       .  A
O1481     Cu1486   2.011       .  S
O1481      C1490   1.278       .  A
O1482     Cu1486   2.011       .  S
O1482      C1489   1.279       .  A
O1483     Cu1486   2.007       .  S
O1483      C1488   1.277       .  A
O1484     Cu1486   2.007       .  S
O1484      C1487   1.279       .  A
Cu1485    Cu1486   2.370       .  S
C1487      C1516   1.484       .  S
C1488      C1506   1.469       .  S
O1491     Cu1499   2.014       .  S
O1491      C1501   1.280       .  A
O1492     Cu1499   2.014       .  S
O1492      C1502   1.278       .  A
O1493     Cu1499   1.999   1_655  S
O1493      C1503   1.276       .  A
O1494      C1504   1.275       .  A
O1495      C1504   1.279       .  A
O1496     Cu1500   2.011   1_655  S
O1496      C1503   1.278       .  A
O1497     Cu1500   2.014       .  S
O1497      C1502   1.279       .  A
O1498     Cu1500   2.015       .  S
O1498      C1501   1.278       .  A
Cu1499    Cu1500   2.368       .  S
C1503      C1519   1.474       .  S
C1504      C1509   1.489       .  S
C1505      C1506   1.399       .  A
C1505      C1510   1.399       .  A
C1505      H1512   1.084       .  S
C1506      C1507   1.405       .  A
C1507      C1508   1.397       .  A
C1507     Br1514   1.921       .  S
C1508      C1509   1.409       .  A
C1508      H1513   1.083       .  S
C1509      C1510   1.421       .  A
C1510     Br1511   1.923       .  S
C1515      C1516   1.406       .  A
C1515      C1520   1.397       .  A
C1515      H1522   1.083       .  S
C1516      C1517   1.417       .  A
C1517      C1518   1.399       .  A
C1517     Br1524   1.922       .  S
C1518      C1519   1.402       .  A
C1518      H1523   1.084       .  S
C1519      C1520   1.409       .  A
C1520     Br1521   1.922       .  S
C1525      C1526   1.408       .  A
C1525      C1530   1.397       .  A
C1525      H1532   1.083       .  S
C1526      C1527   1.419       .  A
C1527      C1528   1.398       .  A
C1527     Br1534   1.923       .  S
C1528      C1529   1.400       .  A
C1528      H1533   1.084       .  S
C1529      C1530   1.407       .  A
C1530     Br1531   1.921       .  S
C1535      C1536   1.403       .  A
C1535      C1540   1.398       .  A
C1535      H1542   1.084       .  S
C1536      C1537   1.411       .  A
C1537      C1538   1.398       .  A
C1537     Br1544   1.922       .  S
C1538      C1539   1.405       .  A
C1538      H1543   1.083       .  S
C1539      C1540   1.414       .  A
C1540     Br1541   1.922       .  S
C1545      C1546   1.403       .  A
C1545      C1550   1.399       .  A
C1545      H1552   1.084       .  S
C1546      C1547   1.409       .  A
C1547      C1548   1.397       .  A
C1547     Br1554   1.921       .  S
C1548      C1549   1.406       .  A
C1548      H1553   1.083       .  S
C1549      C1550   1.416       .  A
C1550     Br1551   1.923       .  S
C1555      C1556   1.404       .  A
C1555      C1560   1.397       .  A
C1555      H1562   1.083       .  S
C1556      C1557   1.414       .  A
C1557      C1558   1.399       .  A
C1557     Br1564   1.922       .  S
C1558      C1559   1.404       .  A
C1558      H1563   1.084       .  S
C1559      C1560   1.412       .  A
C1560     Br1561   1.922       .  S
C1565      C1566   1.401       .  A
C1565      C1570   1.399       .  A
C1565      H1572   1.084       .  S
C1566      C1567   1.406       .  A
C1567      C1568   1.399       .  A
C1567     Br1574   1.920       .  S
C1568      C1569   1.404       .  A
C1568      H1573   1.084       .  S
C1569      C1570   1.411       .  A
C1570     Br1571   1.921       .  S
C1575      C1576   1.405       .  A
C1575      C1580   1.399       .  A
C1575      H1582   1.083       .  S
C1576      C1577   1.415       .  A
C1577      C1578   1.399       .  A
C1577     Br1584   1.922       .  S
C1578      C1579   1.404       .  A
C1578      H1583   1.084       .  S
C1579      C1580   1.413       .  A
C1580     Br1581   1.922       .  S
O1585     Cu1593   2.018       .  S
O1585      C1595   1.279       .  A
O1586     Cu1593   2.010       .  S
O1586      C1596   1.279       .  A
O1587     Cu1593   2.013       .  S
O1587      C1597   1.279       .  A
O1588     Cu1593   2.011       .  S
O1588      C1598   1.277       .  A
O1589     Cu1594   2.005       .  S
O1589      C1598   1.276       .  A
O1590     Cu1594   2.005       .  S
O1590      C1597   1.277       .  A
O1591     Cu1594   2.021       .  S
O1591      C1596   1.279       .  A
O1592     Cu1594   2.013       .  S
O1592      C1595   1.280       .  A
Cu1593    Cu1594   2.370       .  S
C1595      C1700   1.488       .  S
C1596      C1671   1.489       .  S
C1597      C1840   1.484       .  S
C1598      C1830   1.468       .  S
O1600     Cu1607   2.014       .  S
O1600      C1610   1.279       .  A
O1601     Cu1607   2.007       .  S
O1601      C1611   1.277       .  A
O1602      C1612   1.277       .  A
O1603      C1612   1.279       .  A
O1604     Cu1608   2.012       .  S
O1604      C1611   1.278       .  A
O1605     Cu1608   2.010       .  S
O1605      C1610   1.279       .  A
O1606     Cu1608   2.016       .  S
O1606      C1609   1.279       .  A
Cu1607    Cu1608   2.370       .  S
C1609      C1705   1.487       .  S
C1610      C1732   1.486       .  S
C1611      C1833   1.474       .  S
C1612      C1843   1.481       .  S
O1613     Cu1621   2.018       .  S
O1613      C1623   1.279       .  A
O1614     Cu1621   2.016       .  S
O1614      C1624   1.280       .  A
O1615     Cu1621   2.006       .  S
O1615      C1625   1.278       .  A
O1616     Cu1621   2.005       .  S
O1616      C1626   1.276       .  A
O1617     Cu1622   2.004       .  S
O1617      C1626   1.278       .  A
O1618     Cu1622   2.005       .  S
O1618      C1625   1.277       .  A
O1619     Cu1622   2.014       .  S
O1619      C1624   1.278       .  A
O1620     Cu1622   2.011       .  S
O1620      C1623   1.279       .  A
Cu1621    Cu1622   2.368       .  S
C1623      C1682   1.488       .  S
C1624      C1691   1.488       .  S
C1625      C1820   1.480       .  S
C1626      C1813   1.484       .  S
O1627     Cu1635   2.016       .  S
O1627      C1637   1.280       .  A
O1628     Cu1635   2.016       .  S
O1628      C1638   1.279       .  A
O1629      C1639   1.277       .  A
O1630     Cu1635   2.002       .  S
O1630      C1640   1.277       .  A
O1631     Cu1636   2.006       .  S
O1631      C1640   1.278       .  A
O1632      C1639   1.277       .  A
O1633     Cu1636   2.013       .  S
O1633      C1638   1.279       .  A
O1634     Cu1636   2.012       .  S
O1634      C1637   1.278       .  A
Cu1635    Cu1636   2.370       .  S
C1637      C1723   1.487       .  S
C1638      C1714   1.488       .  S
C1639      C1810   1.476       .  S
C1640      C1823   1.478       .  S
O1641     Cu1649   2.019       .  S
O1641      C1651   1.279       .  A
O1642     Cu1649   2.015       .  S
O1642      C1652   1.280       .  A
O1643     Cu1649   1.995       .  S
O1643      C1653   1.275       .  A
O1644     Cu1649   1.996       .  S
O1644      C1654   1.274       .  A
O1645     Cu1650   2.017       .  S
O1645      C1654   1.280       .  A
O1646     Cu1650   2.019       .  S
O1646      C1653   1.280       .  A
O1647     Cu1650   2.016       .  S
O1647      C1652   1.278       .  A
O1648     Cu1650   2.012       .  S
O1648      C1651   1.279       .  A
Cu1649    Cu1650   2.365       .  S
C1651      C1696   1.488       .  S
C1652      C1669   1.488       .  S
C1653      C1790   1.487       .  S
C1654      C1800   1.490       .  S
O1655     Cu1663   2.015       .  S
O1655      C1665   1.280       .  A
O1656      C1666   1.278       .  A
O1657      C1667   1.277       .  A
O1658     Cu1663   2.002       .  S
O1658      C1668   1.278       .  A
O1659     Cu1664   2.008       .  S
O1659      C1668   1.277       .  A
O1660      C1667   1.277       .  A
O1661      C1666   1.281       .  A
O1662     Cu1664   2.007       .  S
O1662      C1665   1.278       .  A
Cu1663    Cu1664   2.372       .  S
C1665      C1709   1.485       .  S
C1667      C1803   1.469       .  S
C1668      C1793   1.474       .  S
C1669      C1934   1.401       .  A
C1669      C1674   1.407       .  A
C1670      C1933   1.401   1_554  A
C1670      C1671   1.402       .  A
C1670      H1675   1.083       .  S
C1671      C1672   1.408       .  A
C1672      C1673   1.418       .  A
C1672      H1676   1.078       .  S
C1673      C1938   1.418   1_554  A
C1674      C1937   1.418       .  A
C1674      H1677   1.078       .  S
C1678      C1754   1.488       .  S
C1678      C1679   1.409       .  A
C1678      C1683   1.401   1_554  A
C1679      C1680   1.418   1_554  A
C1679      H1684   1.078       .  S
C1680      C1945   1.418       .  A
C1681      C1944   1.418       .  A
C1681      C1682   1.408       .  A
C1681      H1685   1.078       .  S
C1682      C1947   1.401       .  A
C1683      C1946   1.401       .  A
C1683      H1686   1.083       .  S
C1687      C1753   1.487       .  S
C1687      C1688   1.408       .  A
C1687      C1692   1.402       .  A
C1688      C1689   1.418       .  A
C1688      H1693   1.078       .  S
C1689      C1698   1.518       .  S
C1689      C1690   1.418       .  A
C1690      C1691   1.408       .  A
C1690      H1694   1.078       .  S
C1691      C1692   1.401       .  A
C1692      H1695   1.083       .  S
C1696      C1697   1.408       .  A
C1696      C1701   1.402       .  A
C1697      C1698   1.418       .  A
C1697      H1702   1.078       .  S
C1698      C1699   1.418       .  A
C1699      C1700   1.408       .  A
C1699      H1703   1.078       .  S
C1700      C1701   1.402       .  A
C1701      H1704   1.083       .  S
C1705      C1710   1.401       .  A
C1706      C1707   1.418       .  A
C1706      H1711   1.078       .  S
C1707      C1708   1.416   1_655  A
C1708      H1712   1.078       .  S
C1709      C1710   1.400       .  A
C1710      H1713   1.083       .  S
C1714      C1715   1.401   1_655  A
C1714      C1719   1.407       .  A
C1715      C1716   1.402       .  A
C1715      H1720   1.083       .  S
C1716      C1766   1.488       .  S
C1716      C1717   1.408       .  A
C1717      C1718   1.417       .  A
C1717      H1721   1.078       .  S
C1718      C1719   1.418   1_455  A
C1719      H1722   1.078       .  S
C1723      C1988   1.400   1_655  A
C1723      C1728   1.408       .  A
C1724      C1987   1.400   1_454  A
C1724      C1725   1.401       .  A
C1724      H1729   1.083       .  S
C1725      C1765   1.489       .  S
C1725      C1726   1.410       .  A
C1726      C1727   1.420   1_455  A
C1726      H1730   1.078       .  S
C1727      C1734   1.520       .  S
C1727      C1992   1.417   1_554  A
C1728      C1991   1.417   1_655  A
C1728      H1731   1.078       .  S
C1732      C1737   1.401       .  A
C1733      C1734   1.416       .  A
C1733      H1738   1.078       .  S
C1734      C1999   1.419   1_654  A
C1735      C1998   1.418   1_455  A
C1735      H1739   1.078       .  S
C1736      C2001   1.401       .  A
C1737      C2000   1.401   1_554  A
C1737      H1740   1.083   1_554  S
O1741     Cu1749   2.004       .  S
O1741      C1751   1.276       .  A
O1742     Cu1749   2.003       .  S
O1742      C1752   1.277       .  A
O1743     Cu1749   2.016       .  S
O1743      C1753   1.279       .  A
O1744     Cu1749   2.019       .  S
O1744      C1754   1.281       .  A
O1745     Cu1750   2.012       .  S
O1745      C1754   1.278       .  A
O1746     Cu1750   2.012       .  S
O1746      C1753   1.279       .  A
O1747     Cu1750   2.007       .  S
O1747      C1752   1.277       .  A
O1748     Cu1750   2.006       .  S
O1748      C1751   1.279       .  A
Cu1749    Cu1750   2.370       .  S
C1751      C1780   1.484       .  S
C1752      C1770   1.469       .  S
O1755     Cu1763   2.015       .  S
O1755      C1765   1.280       .  A
O1756     Cu1763   2.015       .  S
O1756      C1766   1.279       .  A
O1757     Cu1763   1.999   1_655  S
O1757      C1767   1.276       .  A
O1758      C1768   1.275       .  A
O1759      C1768   1.279       .  A
O1760     Cu1764   2.011   1_655  S
O1760      C1767   1.278       .  A
O1761     Cu1764   2.014       .  S
O1761      C1766   1.280       .  A
O1762     Cu1764   2.016       .  S
O1762      C1765   1.278       .  A
Cu1763    Cu1764   2.368       .  S
C1767      C1783   1.474       .  S
C1768      C1773   1.489       .  S
C1769      C1770   1.399       .  A
C1769      C1774   1.399       .  A
C1769      H1776   1.084       .  S
C1770      C1771   1.405       .  A
C1771      C1772   1.397       .  A
C1771     Br1778   1.921       .  S
C1772      C1773   1.409       .  A
C1772      H1777   1.083       .  S
C1773      C1774   1.421       .  A
C1774     Br1775   1.924       .  S
C1779      C1780   1.406       .  A
C1779      C1784   1.397       .  A
C1779      H1786   1.083       .  S
C1780      C1781   1.417       .  A
C1781      C1782   1.399       .  A
C1781     Br1788   1.922       .  S
C1782      C1783   1.402       .  A
C1782      H1787   1.084       .  S
C1783      C1784   1.409       .  A
C1784     Br1785   1.922       .  S
C1789      C1790   1.409       .  A
C1789      C1794   1.401       .  A
C1789      H1796   1.083       .  S
C1790      C1791   1.418       .  A
C1791      C1792   1.396       .  A
C1791     Br1798   1.923       .  S
C1792      C1793   1.399       .  A
C1792      H1797   1.084       .  S
C1793      C1794   1.409       .  A
C1794     Br1795   1.921       .  S
C1799      C1800   1.409       .  A
C1799      C1804   1.398       .  A
C1799      H1806   1.083       .  S
C1800      C1801   1.422       .  A
C1801      C1802   1.399       .  A
C1801     Br1808   1.924       .  S
C1802      C1803   1.398       .  A
C1802      H1807   1.084       .  S
C1803      C1804   1.405       .  A
C1804     Br1805   1.920       .  S
C1809      C1810   1.403       .  A
C1809      C1814   1.400       .  A
C1809      H1816   1.084       .  S
C1810      C1811   1.409       .  A
C1811      C1812   1.397       .  A
C1811     Br1818   1.921       .  S
C1812      C1813   1.406       .  A
C1812      H1817   1.083       .  S
C1813      C1814   1.416       .  A
C1814     Br1815   1.923       .  S
C1819      C1820   1.404       .  A
C1819      C1824   1.397       .  A
C1819      H1826   1.084       .  S
C1820      C1821   1.414       .  A
C1821      C1822   1.399       .  A
C1821     Br1828   1.922       .  S
C1822      C1823   1.404       .  A
C1822      H1827   1.084       .  S
C1823      C1824   1.412       .  A
C1824     Br1825   1.922       .  S
C1829      C1830   1.401       .  A
C1829      C1834   1.399       .  A
C1829      H1836   1.084       .  S
C1830      C1831   1.406       .  A
C1831      C1832   1.400       .  A
C1831     Br1838   1.919       .  S
C1832      C1833   1.404       .  A
C1832      H1837   1.084       .  S
C1833      C1834   1.411       .  A
C1834     Br1835   1.921       .  S
C1839      C1840   1.406       .  A
C1839      C1844   1.400       .  A
C1839      H1846   1.083       .  S
C1840      C1841   1.415       .  A
C1841      C1842   1.399       .  A
C1841     Br1848   1.922       .  S
C1842      C1843   1.403       .  A
C1842      H1847   1.084       .  S
C1843      C1844   1.413       .  A
C1844     Br1845   1.922       .  S
O1849     Cu1857   2.016       .  S
O1849      C1859   1.279       .  A
O1850     Cu1857   2.009       .  S
O1850      C1860   1.279       .  A
O1851     Cu1857   2.013       .  S
O1851      C1861   1.279       .  A
O1852     Cu1857   2.011       .  S
O1852      C1862   1.278       .  A
O1853     Cu1858   2.005       .  S
O1853      C1862   1.276       .  A
O1854     Cu1858   2.005       .  S
O1854      C1861   1.277       .  A
O1855     Cu1858   2.020       .  S
O1855      C1860   1.279       .  A
O1856     Cu1858   2.012       .  S
O1856      C1859   1.280       .  A
Cu1857    Cu1858   2.370       .  S
C1859      C1964   1.488       .  S
C1860      C1935   1.488       .  S
C1861      C2104   1.484       .  S
C1862      C2094   1.468       .  S
O1864     Cu1871   2.015       .  S
O1864      C1874   1.279       .  A
O1865     Cu1871   2.007       .  S
O1865      C1875   1.277       .  A
O1866      C1876   1.277       .  A
O1867      C1876   1.279       .  A
O1868     Cu1872   2.011       .  S
O1868      C1875   1.278       .  A
O1869     Cu1872   2.011       .  S
O1869      C1874   1.279       .  A
O1870     Cu1872   2.017       .  S
O1870      C1873   1.279       .  A
Cu1871    Cu1872   2.370       .  S
C1873      C1969   1.487       .  S
C1874      C1996   1.487       .  S
C1875      C2097   1.474       .  S
C1876      C2107   1.481       .  S
O1877     Cu1885   2.018       .  S
O1877      C1887   1.279       .  A
O1878     Cu1885   2.015       .  S
O1878      C1888   1.280       .  A
O1879     Cu1885   2.006       .  S
O1879      C1889   1.278       .  A
O1880     Cu1885   2.005       .  S
O1880      C1890   1.276       .  A
O1881     Cu1886   2.004       .  S
O1881      C1890   1.278       .  A
O1882     Cu1886   2.005       .  S
O1882      C1889   1.277       .  A
O1883     Cu1886   2.014       .  S
O1883      C1888   1.278       .  A
O1884     Cu1886   2.012       .  S
O1884      C1887   1.279       .  A
Cu1885    Cu1886   2.368       .  S
C1887      C1946   1.488       .  S
C1888      C1955   1.488       .  S
C1889      C2084   1.480       .  S
C1890      C2077   1.484       .  S
O1891     Cu1899   2.015       .  S
O1891      C1901   1.280       .  A
O1892     Cu1899   2.015       .  S
O1892      C1902   1.279       .  A
O1893      C1903   1.277       .  A
O1894     Cu1899   2.002       .  S
O1894      C1904   1.277       .  A
O1895     Cu1900   2.006       .  S
O1895      C1904   1.278       .  A
O1896      C1903   1.277       .  A
O1897     Cu1900   2.014       .  S
O1897      C1902   1.280       .  A
O1898     Cu1900   2.011       .  S
O1898      C1901   1.278       .  A
Cu1899    Cu1900   2.370       .  S
C1901      C1987   1.486       .  S
C1902      C1978   1.488       .  S
C1903      C2074   1.476       .  S
C1904      C2087   1.478       .  S
O1905     Cu1913   2.018       .  S
O1905      C1915   1.279       .  A
O1906     Cu1913   2.015       .  S
O1906      C1916   1.280       .  A
O1907     Cu1913   1.998       .  S
O1907      C1917   1.275       .  A
O1908     Cu1913   1.997       .  S
O1908      C1918   1.275       .  A
O1909     Cu1914   2.012       .  S
O1909      C1918   1.279       .  A
O1910     Cu1914   2.014       .  S
O1910      C1917   1.279       .  A
O1911     Cu1914   2.017       .  S
O1911      C1916   1.279       .  A
O1912     Cu1914   2.011       .  S
O1912      C1915   1.279       .  A
Cu1913    Cu1914   2.366       .  S
C1915      C1960   1.487       .  S
C1916      C1933   1.488       .  S
C1917      C2054   1.485       .  S
C1918      C2064   1.486       .  S
O1919     Cu1927   2.014       .  S
O1919      C1929   1.280       .  A
O1920      C1930   1.278       .  A
O1921      C1931   1.277       .  A
O1922     Cu1927   2.002       .  S
O1922      C1932   1.277       .  A
O1923     Cu1928   2.006       .  S
O1923      C1932   1.277       .  A
O1924      C1931   1.277       .  A
O1925      C1930   1.280       .  A
O1926     Cu1928   2.007       .  S
O1926      C1929   1.278       .  A
Cu1927    Cu1928   2.372       .  S
C1929      C1973   1.485       .  S
C1931      C2067   1.473       .  S
C1932      C2057   1.474       .  S
C1933      C1938   1.407       .  A
C1934      C1935   1.402       .  A
C1934      H1939   1.083       .  S
C1935      C1936   1.408       .  A
C1936      C1937   1.418       .  A
C1936      H1940   1.079       .  S
C1938      H1941   1.078       .  S
C1942      C2018   1.489       .  S
C1942      C1943   1.409       .  A
C1942      C1947   1.401       .  A
C1943      C1944   1.418       .  A
C1943      H1948   1.078       .  S
C1945      C1946   1.408       .  A
C1945      H1949   1.078       .  S
C1947      H1950   1.083       .  S
C1951      C2017   1.487       .  S
C1951      C1952   1.408       .  A
C1951      C1956   1.402       .  A
C1952      C1953   1.418       .  A
C1952      H1957   1.078       .  S
C1953      C1962   1.518       .  S
C1953      C1954   1.418       .  A
C1954      C1955   1.408       .  A
C1954      H1958   1.078       .  S
C1955      C1956   1.401       .  A
C1956      H1959   1.083       .  S
C1960      C1961   1.407       .  A
C1960      C1965   1.401       .  A
C1961      C1962   1.418       .  A
C1961      H1966   1.078       .  S
C1962      C1963   1.418       .  A
C1963      C1964   1.408       .  A
C1963      H1967   1.078       .  S
C1964      C1965   1.401       .  A
C1965      H1968   1.083       .  S
C1969      C1974   1.401       .  A
C1970      C1971   1.418       .  A
C1970      H1975   1.078       .  S
C1971      C1972   1.416   1_655  A
C1972      H1976   1.078       .  S
C1973      C1974   1.400       .  A
C1974      H1977   1.083       .  S
C1978      C1979   1.401   1_655  A
C1978      C1983   1.407       .  A
C1979      C1980   1.402       .  A
C1979      H1984   1.083       .  S
C1980      C2030   1.487       .  S
C1980      C1981   1.408       .  A
C1981      C1982   1.416       .  A
C1981      H1985   1.078       .  S
C1982      C1983   1.418   1_455  A
C1983      H1986   1.078       .  S
C1987      C1992   1.407       .  A
C1988      C1989   1.401       .  A
C1988      H1993   1.083       .  S
C1989      C2029   1.488       .  S
C1989      C1990   1.409       .  A
C1990      C1991   1.419       .  A
C1990      H1994   1.078       .  S
C1991      C1998   1.519   1_455  S
C1992      H1995   1.078       .  S
C1996      C2001   1.401       .  A
C1997      C1998   1.417       .  A
C1997      H2002   1.078       .  S
C1999      H2003   1.078       .  S
C2001      H2004   1.083       .  S
O2005     Cu2013   2.003       .  S
O2005      C2015   1.276       .  A
O2006     Cu2013   2.003       .  S
O2006      C2016   1.277       .  A
O2007     Cu2013   2.016       .  S
O2007      C2017   1.279       .  A
O2008     Cu2013   2.020       .  S
O2008      C2018   1.281       .  A
O2009     Cu2014   2.012       .  S
O2009      C2018   1.278       .  A
O2010     Cu2014   2.012       .  S
O2010      C2017   1.279       .  A
O2011     Cu2014   2.007       .  S
O2011      C2016   1.277       .  A
O2012     Cu2014   2.007       .  S
O2012      C2015   1.279       .  A
Cu2013    Cu2014   2.370       .  S
C2015      C2044   1.484       .  S
C2016      C2034   1.469       .  S
O2019     Cu2027   2.014       .  S
O2019      C2029   1.280       .  A
O2020     Cu2027   2.014       .  S
O2020      C2030   1.278       .  A
O2021     Cu2027   1.999   1_655  S
O2021      C2031   1.276       .  A
O2022      C2032   1.275       .  A
O2023      C2032   1.279       .  A
O2024     Cu2028   2.011   1_655  S
O2024      C2031   1.278       .  A
O2025     Cu2028   2.014       .  S
O2025      C2030   1.279       .  A
O2026     Cu2028   2.015       .  S
O2026      C2029   1.278       .  A
Cu2027    Cu2028   2.368       .  S
C2031      C2047   1.474       .  S
C2032      C2037   1.489       .  S
C2033      C2034   1.399       .  A
C2033      C2038   1.399       .  A
C2033      H2040   1.084       .  S
C2034      C2035   1.405       .  A
C2035      C2036   1.397       .  A
C2035     Br2042   1.921       .  S
C2036      C2037   1.409       .  A
C2036      H2041   1.083       .  S
C2037      C2038   1.421       .  A
C2038     Br2039   1.923       .  S
C2043      C2044   1.406       .  A
C2043      C2048   1.397       .  A
C2043      H2050   1.083       .  S
C2044      C2045   1.417       .  A
C2045      C2046   1.399       .  A
C2045     Br2052   1.922       .  S
C2046      C2047   1.402       .  A
C2046      H2051   1.084       .  S
C2047      C2048   1.409       .  A
C2048     Br2049   1.922       .  S
C2053      C2054   1.407       .  A
C2053      C2058   1.399       .  A
C2053      H2060   1.083       .  S
C2054      C2055   1.417       .  A
C2055      C2056   1.397       .  A
C2055     Br2062   1.923       .  S
C2056      C2057   1.401       .  A
C2056      H2061   1.084       .  S
C2057      C2058   1.409       .  A
C2058     Br2059   1.921       .  S
C2063      C2064   1.408       .  A
C2063      C2068   1.398       .  A
C2063      H2070   1.083       .  S
C2064      C2065   1.419       .  A
C2065      C2066   1.398       .  A
C2065     Br2072   1.923       .  S
C2066      C2067   1.400       .  A
C2066      H2071   1.084       .  S
C2067      C2068   1.408       .  A
C2068     Br2069   1.921       .  S
C2073      C2074   1.403       .  A
C2073      C2078   1.399       .  A
C2073      H2080   1.084       .  S
C2074      C2075   1.409       .  A
C2075      C2076   1.397       .  A
C2075     Br2082   1.921       .  S
C2076      C2077   1.406       .  A
C2076      H2081   1.083       .  S
C2077      C2078   1.416       .  A
C2078     Br2079   1.923       .  S
C2083      C2084   1.404       .  A
C2083      C2088   1.397       .  A
C2083      H2090   1.084       .  S
C2084      C2085   1.413       .  A
C2085      C2086   1.399       .  A
C2085     Br2092   1.922       .  S
C2086      C2087   1.404       .  A
C2086      H2091   1.084       .  S
C2087      C2088   1.412       .  A
C2088     Br2089   1.922       .  S
C2093      C2094   1.401       .  A
C2093      C2098   1.399       .  A
C2093      H2100   1.084       .  S
C2094      C2095   1.406       .  A
C2095      C2096   1.400       .  A
C2095     Br2102   1.919       .  S
C2096      C2097   1.404       .  A
C2096      H2101   1.084       .  S
C2097      C2098   1.411       .  A
C2098     Br2099   1.921       .  S
C2103      C2104   1.406       .  A
C2103      C2108   1.400       .  A
C2103      H2110   1.083       .  S
C2104      C2105   1.415       .  A
C2105      C2106   1.399       .  A
C2105     Br2112   1.922       .  S
C2106      C2107   1.403       .  A
C2106      H2111   1.084       .  S
C2107      C2108   1.412       .  A
C2108     Br2109   1.922       .  S
