geometry optimzed in LAMMPS
_audit_creation_date              2020-12-01 
_audit_creation_method            'lammps2cif' 
_symmetry_space_group_name_H-M    'P1' 
_symmetry_Int_Tables_number       1 
_symmetry_cell_setting            triclinic 
loop_ 
_symmetry_equiv_pos_as_xyz 
  x,y,z 
_cell_length_a                    32.58273633 
_cell_length_b                    36.45563802001316 
_cell_length_c                    27.75358470124554 
_cell_angle_alpha                 93.28928958292641 
_cell_angle_beta                  86.75877854536176 
_cell_angle_gamma                 126.89309543167714 
loop_ 
_atom_site_label 
_atom_site_type_symbol 
_atom_site_fract_x 
_atom_site_fract_y 
_atom_site_fract_z 
_atom_site_charge 
O1          O  0.07097885  0.31780622  0.33188545    -0.81500
O2          O  0.28672669  0.42186853  0.41626886    -0.66200
O3          O  0.17559565  0.35504527  0.32946373    -1.12800
C4          C  0.13642771  0.23262150  0.43132079     1.05400
O5          O  0.29981921  0.37193409  0.39228756    -0.79400
O6          O  0.24623104  0.29037993  0.34510752    -0.67000
Ni7        Ni  0.13493563  0.37670166  0.32209211     1.34900
C8          C  0.21816437  0.27894096  0.30902772     0.84100
O9          O  0.26037079  0.45057239  0.34516358    -0.79900
O10         O  0.19371075  0.43811639  0.30792577    -0.90200
C11         C  0.30596785  0.40139505  0.42346344     0.83700
O12         O  0.13206102  0.39379495  0.38927059    -0.68400
O13         O  0.18508700  0.25362803  0.43184796    -0.87700
C14         C  0.15836068  0.40171680  0.42616366     0.84500
C15         C  0.24020372  0.46436074  0.32044266     1.06100
H16         H  0.18800682  0.33166238  0.43176947     0.37900
O17         O  0.20147345  0.33168109  0.39984192    -1.10300
O18         O  0.17860728  0.27947432  0.31186913    -0.67000
Ni19       Ni  0.14429581  0.29641494  0.36025651     1.26300
O20         O  0.19657984  0.40075740  0.42370385    -0.67200
O21         O  0.11485891  0.24146501  0.40048323    -0.79500
C22         C  0.05560895  0.27817835  0.31575361     0.83900
O23         O  0.08390023  0.26458809  0.31943677    -0.66700
Ni24       Ni  0.24341949  0.31253110  0.40941834     1.27400
Ni25       Ni  0.23196520  0.39109814  0.37244528     1.26100
H26         H  0.18914336  0.35416121  0.29789423     0.38500
N27         N  0.26509638  0.25286676  0.25172386    -0.04100
C28         C  0.22816531  0.26009015  0.26264176    -0.01500
C29         C  0.18792677  0.23200651  0.23163199    -0.24400
C30         C  0.19795943  0.20498338  0.20502145    -0.24600
C31         C  0.24415980  0.21652272  0.21982637    -0.01600
H32         H  0.15159840  0.22698943  0.23271970     0.12200
H33         H  0.17063434  0.17551898  0.18280049     0.12200
N34         N  0.28602174  0.03638633  0.26931201    -0.04100
C35         C  0.26795611  0.01437329  0.31246089    -0.01500
C36         C  0.26436113  0.04115386  0.34688277    -0.24400
C37         C  0.28018690  0.08061639  0.32503599    -0.24600
C38         C  0.29081677  0.07620974  0.27685183    -0.01600
H39         H  0.24967357  0.53207729  0.38362995     0.12200
H40         H  0.28294578  0.10911363  0.34291071     0.12200
N41         N  0.50187758  0.24611464  0.30173758    -0.04100
C42         C  0.47024897  0.25633906  0.32068040    -0.01500
C43         C  0.44611813  0.23386195  0.36301581    -0.24400
C44         C  0.45318647  0.20101757  0.36395507    -0.24600
C45         C  0.47846290  0.20451843  0.32025604    -0.01600
H46         H  0.41792098  0.23460525  0.38472294     0.12200
H47         H  0.42950030  0.17102631  0.38594794     0.12200
C48         C  0.31783301  0.39933182  0.47238641     0.79600
N49         N  0.36462297  0.41092496  0.48066343    -0.78700
C50         C  0.37631097  0.40816216  0.52543155     0.82100
N51         N  0.33656609  0.38156992  0.55683704    -0.78600
C52         C  0.29344610  0.37932560  0.55385931     0.82200
N53         N  0.28304386  0.38648781  0.50985649    -0.80300
C54         C  0.14640309  0.41628248  0.47294022     0.79600
N55         N  0.13384638  0.44545596  0.47108160    -0.78700
C56         C  0.11996945  0.45880879  0.51150843     0.82100
N57         N  0.12816712  0.44931522  0.55457033    -0.78600
C58         C  0.13464348  0.41593296  0.55841906     0.82200
N59         N  0.14432314  0.39942715  0.51689769    -0.80300
O60         O  0.47047038  0.11342527  0.10923115    -0.81500
O61         O  0.42318874  0.00904038  0.29022148    -0.66200
O62         O  0.41154385  0.04904064  0.17016175    -1.12800
C63         C  0.45343652  0.16254320  0.29024697     1.05400
O64         O  0.39658093  0.04374163  0.33749173    -0.79400
O65         O  0.33980718  0.01478084  0.25587081    -0.67000
Ni66       Ni  0.45079588  0.05284974  0.11516095     1.34900
C67         C  0.32609836  0.03842630  0.24202242     0.84100
O68         O  0.39216177  0.47090304  0.19716526    -0.79900
O69         O  0.43512306  0.49281193  0.12514915    -0.90200
C70         C  0.41598835  0.02231460  0.33196873     0.83700
O71         O  0.51393357  0.08066546  0.14429439    -0.68400
O72         O  0.43009409  0.12714127  0.31577583    -0.87700
C73         C  0.02085657  0.06646387  0.18086836     0.84500
C74         C  0.41390888  0.46565814  0.16094678     1.06100
H75         H  0.47417196  0.10127202  0.26687586     0.37900
O76         O  0.44035531  0.08301276  0.25333976    -1.10300
O77         O  0.35850048  0.07532694  0.21864018    -0.67000
Ni78       Ni  0.43074926  0.10592466  0.20081002     1.26300
O79         O  0.48739421  0.04622601  0.21491634    -0.67200
O80         O  0.45185466  0.16079197  0.24283546    -0.79500
C81         C  0.43501501  0.11726610  0.10406196     0.83900
O82         O  0.41765339  0.12515830  0.14240936    -0.66700
Ni83       Ni  0.38464176  0.07046073  0.28942614     1.27400
Ni84       Ni  0.41780020  0.02715478  0.22741017     1.26100
H85         H  0.37597085  0.03026305  0.16123332     0.38500
O86         O  0.42553605  0.36228220  0.35158566    -0.81500
O87         O  0.40506488  0.26941048  0.15187119    -0.66200
O88         O  0.44066143  0.34585879  0.26561920    -1.12800
C89         C  0.42201251  0.43150978  0.16802395     1.05400
O90         O  0.47236458  0.33377318  0.12640813    -0.79400
O91         O  0.52417016  0.41736039  0.16791862    -0.67000
Ni92       Ni  0.39324698  0.30829526  0.31237475     1.34900
C93         C  0.03232291  0.44367935  0.20383455     0.84100
O94         O  0.43662489  0.26948331  0.25157837    -0.79900
O95         O  0.44175753  0.30013040  0.32660630    -0.90200
C96         C  0.43120758  0.29509255  0.11574501     0.83700
O97         O  0.34180785  0.31173066  0.29160308    -0.68400
O98         O  0.45009388  0.42653959  0.13822539    -0.87700
C99         C  0.32034940  0.28036680  0.25901818     0.84500
C100        C  0.45068587  0.27771374  0.29673963     1.06100
H101        H  0.38081169  0.33153728  0.17184730     0.37900
O102        O  0.41531481  0.34731993  0.18308700    -1.10300
O103        O  0.49592357  0.43425722  0.23294087    -0.67000
Ni104      Ni  0.42368620  0.38089112  0.24007692     1.26300
O105        O  0.34752666  0.27017489  0.23326091    -0.67200
O106        O  0.40516740  0.41245745  0.20883745    -0.79500
C107        C  0.44290867  0.40237808  0.33897028     0.83900
O108        O  0.42969226  0.41055276  0.30089857    -0.66700
Ni109      Ni  0.46268238  0.38055273  0.13207479     1.27400
Ni110      Ni  0.42250173  0.30579909  0.21332952     1.26100
H111        H  0.47659501  0.36322638  0.27303610     0.38500
O112        O  0.18385542  0.04180466  0.10222559    -0.81500
O113        O  0.13615230  0.09693140  0.29237799    -0.66200
O114        O  0.17254094  0.09069246  0.16527152    -1.12800
C115        C  0.30423573  0.11072312  0.23936562     1.05400
O116        O  0.19206543  0.09721044  0.33534297    -0.79400
O117        O  0.24063908  0.16570382  0.26986760    -0.67000
Ni118      Ni  0.12664823  0.04045439  0.12550507     1.34900
C119        C  0.24993128  0.17964702  0.22680470     0.84100
O120        O  0.10109195  0.09583909  0.21075705    -0.79900
O121        O  0.06999130  0.04223788  0.15017364    -0.90200
C122        C  0.14832852  0.08662207  0.32819022     0.83700
O123        O  0.11395914  0.99747569  0.17041255    -0.68400
O124        O  0.30633317  0.14509354  0.25327870    -0.87700
C125        C  0.08396886  0.98922777  0.20554907     0.84500
C126        C  0.06691581  0.06882614  0.18047359     1.06100
H127        H  0.18804815  0.04998229  0.25003203     0.37900
O128        O  0.20300330  0.08150498  0.24337922    -1.10300
O129        O  0.26234898  0.16239009  0.19190225    -0.67000
Ni130      Ni  0.23275552  0.09647670  0.17913633     1.26300
O131        O  0.09413994  0.02245131  0.23395737    -0.67200
O132        O  0.29097489  0.09775101  0.19618692    -0.79500
C133        C  0.21942717  0.08005263  0.08463192     0.83900
O134        O  0.25592441  0.10877886  0.11233632    -0.66700
Ni135      Ni  0.24871459  0.12285898  0.29307978     1.27400
Ni136      Ni  0.15122594  0.08937350  0.22902839     1.26100
H137        H  0.18125184  0.11832051  0.15141018     0.38500
O138        O  0.05086576  0.43995230  0.46879749    -0.81500
O139        O  0.48361835  0.03621174  0.37409353    -0.66200
O140        O  0.06064288  0.01434443  0.44672311    -1.12800
C141        C  0.42532837  0.44938527  0.54411585     1.05400
O142        O  0.40893226  0.00363059  0.41383701    -0.79400
O143        O  0.48989244  0.05975541  0.47729828    -0.67000
Ni144      Ni  0.07630812  0.47751722  0.41527263     1.34900
C145        C  0.03126227  0.07407570  0.49860049     0.84100
O146        O  0.07930866  0.06543015  0.37551059    -0.79900
O147        O  0.10185504  0.01731012  0.36227308    -0.90200
C148        C  0.43651067  0.01886739  0.37539861     0.83700
O149        O  0.01012126  0.43271794  0.39106339    -0.68400
O150        O  0.43632243  0.48874657  0.53964502    -0.87700
C151        C  0.48543718  0.44014970  0.36555837     0.84500
C152        C  0.10839106  0.05542519  0.35822277     1.06100
H153        H  0.44490555  0.45048081  0.43705886     0.37900
O154        O  0.46608515  0.48034709  0.45245511    -1.07300
O155        O  0.03696867  0.04621936  0.51957512    -0.67000
Ni156      Ni  0.51359204  0.48354192  0.49609717     1.26300
O157        O  0.49936757  0.47996791  0.36066012    -0.67200
O158        O  0.46279011  0.44816566  0.54538684    -0.79500
C159        C  0.07612883  0.46039348  0.50595470     0.83900
O160        O  0.06529781  0.48459701  0.53048903    -0.66700
Ni161      Ni  0.42582203  0.99885076  0.47749552     1.27400
Ni162      Ni  0.02132147  0.02475820  0.41145313     1.26100
H163        H  0.09168586  0.04270484  0.45816476     0.38500
C164        C  0.10601595  0.19905288  0.47184279     0.79600
N165        N  0.11266426  0.21564744  0.51922200    -0.78700
C166        C  0.10327992  0.18824914  0.55680829     0.82100
N167        N  0.08969155  0.14543444  0.54528438    -0.78600
C168        C  0.07170203  0.12531543  0.50139413     0.82200
N169        N  0.08139006  0.15280131  0.46387884    -0.80300
O170        O  0.08746363  0.11273870  0.90655726    -0.81500
O171        O  0.45085154  0.43692906  0.04607400    -0.66200
O172        O  0.03951929  0.03636175  0.95706312    -1.12800
C173        C  0.40112738  0.42748816  0.86606799     1.05400
O174        O  0.48227821  0.41638340  0.99064061    -0.79400
O175        O  0.99823213  0.42479012  0.89966538    -0.67000
Ni176      Ni  0.06667152  0.09842308  0.97177786     1.34900
C177        C  0.02185819  0.45687788  0.87064439     0.84100
O178        O  0.04601429  0.02695947  0.05587165    -0.79900
O179        O  0.05317262  0.08664123  0.03706538    -0.90200
C180        C  0.45236218  0.40479045  0.02614329     0.83700
O181        O  0.99787739  0.07804678  0.96381993    -0.68400
O182        O  0.40264231  0.39815641  0.88724942    -0.87700
C183        C  0.95961775  0.04960384  0.99136300     0.84500
C184        C  0.07480011  0.06978980  0.04967899     1.06100
H185        H  0.41803610  0.45289346  0.96538176     0.37900
O186        O  0.45115065  0.46005353  0.95622834    -1.10300
O187        O  0.01835127  0.48909322  0.87143126    -0.67000
Ni188      Ni  0.98492891  0.00706693  0.91259348     1.26300
O189        O  0.95913558  0.02045678  0.01764339    -0.67200
O190        O  0.42850005  0.47101617  0.87344487    -0.79500
C191        C  0.06576128  0.09024135  0.86823466     0.83900
O192        O  0.01940298  0.05475624  0.86728368    -0.66700
Ni193      Ni  0.44122312  0.40515048  0.93958161     1.27400
Ni194      Ni  0.99627047  0.99195254  0.00606441     1.26100
H195        H  0.06561512  0.03296885  0.94554557     0.38500
O196        O  0.06266262  0.37873825  0.60892805    -0.81500
O197        O  0.05297953  0.46565102  0.79095661    -0.66200
O198        O  0.10322238  0.44377751  0.67549153    -1.12800
C199        C  0.09413572  0.34354041  0.77003609     1.05400
O200        O  0.07111499  0.43480115  0.84625018    -0.79400
O201        O  0.15646775  0.46928158  0.79262911    -0.67000
Ni202      Ni  0.07422811  0.43631924  0.61541753     1.34900
C203        C  0.18407963  0.47283731  0.75669792     0.84100
O204        O  0.09000398  0.00676892  0.70510445    -0.79900
O205        O  0.08682415  0.99494553  0.62365429    -0.90200
C206        C  0.05189565  0.45399103  0.83370859     0.83700
O207        O  0.00489216  0.40776882  0.63217014    -0.68400
O208        O  0.12954842  0.38314113  0.78405219    -0.87700
C209        C  0.98430240  0.40750630  0.67197408     0.84500
C210        C  0.09221405  0.01852799  0.66187110     1.06100
H211        H  0.02955510  0.37517300  0.75759277     0.37900
O212        O  0.06565531  0.40041976  0.75478759    -1.10300
O213        O  0.16706378  0.44026269  0.72353850    -0.67000
Ni214      Ni  0.09731475  0.39262041  0.69833321     1.26300
O215        O  0.00671962  0.41937563  0.71215486    -0.67200
O216        O  0.08452333  0.33823931  0.72556363    -0.79500
C217        C  0.10564772  0.38644161  0.60063806     0.83900
O218        O  0.12798322  0.38735945  0.63759248    -0.66700
Ni219      Ni  0.10080397  0.41029070  0.81328671     1.27400
Ni220      Ni  0.07707443  0.45424258  0.73181199     1.26100
H221        H  0.13893199  0.46960351  0.67172911     0.38500
O222        O  0.12435445  0.15032506  0.81926673    -0.81500
O223        O  0.10784784  0.21954148  0.64148324    -0.66200
O224        O  0.06282864  0.14403543  0.75460180    -1.12800
C225        C  0.09757920  0.06048438  0.65898736     1.05400
O226        O  0.04356589  0.15204350  0.61892789    -0.79400
O227        O  0.99577433  0.07293252  0.65621798    -0.67000
Ni228      Ni  0.08192225  0.16837569  0.81735877     1.34900
C229        C  0.48824737  0.04656978  0.68837100     0.84100
O230        O  0.06945473  0.22390496  0.74268113    -0.79900
O231        O  0.03855040  0.18522099  0.81278514    -0.90200
C232        C  0.08255425  0.19063475  0.60624703     0.83700
O233        O  0.14126056  0.22727987  0.80121672    -0.68400
O234        O  0.07292311  0.06441128  0.62735687    -0.87700
C235        C  0.17364614  0.23564771  0.76756145     0.84500
C236        C  0.04643648  0.21558727  0.78554391     1.06100
H237        H  0.13604434  0.16278807  0.66167254     0.37900
O238        O  0.10059464  0.14565895  0.67277023    -1.10300
O239        O  0.02297876  0.05764573  0.71694514    -0.67000
Ni240      Ni  0.09066550  0.11378671  0.72798941     1.26300
O241        O  0.15853417  0.22266044  0.72425977    -0.67200
O242        O  0.11859978  0.08724327  0.69553308    -0.79500
C243        C  0.09509466  0.10794511  0.82353800     0.83900
O244        O  0.08087197  0.08317098  0.78576124    -0.66700
Ni245      Ni  0.05842686  0.10906534  0.62118548     1.27400
Ni246      Ni  0.08662215  0.18581140  0.70348102     1.26100
H247        H  0.02579560  0.12316177  0.75408689     0.38500
O248        O  0.32930282  0.43914887  0.60786078    -0.81500
O249        O  0.39869956  0.42298689  0.78690980    -0.66200
O250        O  0.33731050  0.39349630  0.67014197    -1.12800
C251        C  0.26853911  0.46389701  0.74169714     1.05400
O252        O  0.32642250  0.39649971  0.82802046    -0.79400
O253        O  0.24023086  0.37317286  0.78958695    -0.67000
Ni254      Ni  0.37995724  0.43023315  0.61999376     1.34900
C255        C  0.24003105  0.34196970  0.76679456     0.84100
O256        O  0.40610331  0.38566032  0.70738555    -0.79900
O257        O  0.43138503  0.42132245  0.63628865    -0.90200
C258        C  0.37291536  0.41250524  0.82532198     0.83700
O259        O  0.41308041  0.48802074  0.65169224    -0.68400
O260        O  0.28541341  0.46559680  0.78269425    -0.87700
C261        C  0.44141895  0.99982386  0.68668737     0.84500
C262        C  0.43618868  0.40173920  0.67056101     1.06100
H263        H  0.35788300  0.46833411  0.73842580     0.37900
O264        O  0.33508761  0.43580908  0.74379137    -1.10300
O265        O  0.25123770  0.34710588  0.72164928    -0.67000
Ni266      Ni  0.29154748  0.40749941  0.69008780     1.26300
O267        O  0.43276400  0.47059735  0.71598722    -0.67200
O268        O  0.25198553  0.42994543  0.71117358    -0.79500
C269        C  0.28759451  0.40201744  0.59601982     0.83900
O270        O  0.25480834  0.38036282  0.63023068    -0.66700
Ni271      Ni  0.30429971  0.42966447  0.80546454     1.27400
Ni272      Ni  0.37038836  0.40968538  0.72820052     1.26100
H273        H  0.31987227  0.36132236  0.66186005     0.38500
C274        C  0.18421409  0.09875578  0.96998116     0.79600
N275        N  0.14263910  0.09687745  0.98595294    -0.78700
C276        C  0.12884957  0.09176959  0.03381465     0.82100
N277        N  0.16054441  0.09454547  0.06519429    -0.78600
C278        C  0.20232901  0.09682219  0.05031884     0.82200
N279        N  0.21276603  0.09674952  0.00229441    -0.80300
C280        C  0.40213979  0.28931614  0.98484433     0.79600
N281        N  0.40624123  0.32897901  0.98660526    -0.78700
C282        C  0.41363972  0.35356272  0.02890142     0.82100
N283        N  0.40752062  0.33325823  0.07057791    -0.78600
C284        C  0.40664322  0.29533684  0.07152966     0.82200
N285        N  0.40513022  0.27382355  0.02801087    -0.80300
C286        C  0.39922701  0.10726919  0.97810605     0.79600
N287        N  0.40064776  0.11859126  0.02641747    -0.78700
C288        C  0.40528088  0.09492582  0.05963632     0.82100
N289        N  0.40473956  0.05870039  0.04382297    -0.78600
C290        C  0.41887034  0.05665714  0.99780225     0.82200
N291        N  0.41264921  0.07892697  0.96391636    -0.80300
O292        O  0.32231398  0.26380195  0.83122870    -0.81500
O293        O  0.39720671  0.15811005  0.92672379    -0.66200
O294        O  0.34800357  0.20034444  0.83488185    -1.12800
C295        C  0.19734215  0.10035301  0.91807403     1.05400
O296        O  0.32674510  0.08540240  0.93423797    -0.79400
O297        O  0.27530404  0.06969698  0.84846685    -0.67000
Ni298      Ni  0.38431046  0.26540236  0.82795627     1.34900
C299        C  0.26285909  0.08033949  0.81168875     0.84100
O300        O  0.44305884  0.21550320  0.84858870    -0.79900
O301        O  0.45015372  0.27415544  0.81623492    -0.90200
C302        C  0.37348004  0.11781968  0.94375748     0.83700
O303        O  0.39406830  0.28278117  0.89727768    -0.68400
O304        O  0.20680312  0.07360697  0.89990635    -0.87700
C305        C  0.39663763  0.26554851  0.93508019     0.84500
C306        C  0.46766679  0.25107477  0.82185645     1.06100
H307        H  0.30594143  0.16021048  0.93822955     0.37900
O308        O  0.30584714  0.14717569  0.90689336    -1.10300
O309        O  0.25767220  0.11331097  0.81369676    -0.67000
Ni310      Ni  0.27893566  0.16623711  0.86099607     1.26300
O311        O  0.39397916  0.22899912  0.93163164    -0.67200
O312        O  0.21318348  0.13568469  0.89501423    -0.79500
C313        C  0.27529662  0.23447368  0.81861342     0.83900
O314        O  0.25550542  0.19139560  0.81742152    -0.66700
Ni315      Ni  0.26790893  0.08198568  0.91515241     1.27400
Ni316      Ni  0.37479716  0.18134961  0.88062652     1.26100
H317        H  0.34781629  0.18744529  0.80342014     0.38500
N318        N  0.23770820  0.51093874  0.75549832    -0.04100
C319        C  0.26256982  0.55749514  0.76392724    -0.01500
C320        C  0.30998304  0.57948089  0.73994953    -0.24400
C321        C  0.31505605  0.54637064  0.72099532    -0.24600
C322        C  0.26988550  0.50424963  0.73157995    -0.01600
H323        H  0.34161303  0.11555759  0.74392298     0.12200
H324        H  0.35054847  0.55261967  0.70762980     0.12200
N325        N  0.01797614  0.26682718  0.79866656    -0.04100
C326        C  0.03847123  0.24650571  0.81387954    -0.01500
C327        C  0.07198214  0.27205376  0.85089353    -0.24400
C328        C  0.08313637  0.31425354  0.84872470    -0.24600
C329        C  0.05809028  0.31129313  0.80823298    -0.01600
H330        H  0.09562522  0.26512445  0.86807768     0.12200
H331        H  0.11777098  0.34493364  0.86336964     0.12200
N332        N  0.22779305  0.26537645  0.77968377    -0.04100
C333        C  0.24182186  0.25184700  0.81825632    -0.01500
C334        C  0.24609817  0.27734849  0.85915778    -0.24400
C335        C  0.24230083  0.31055869  0.84546734    -0.24600
C336        C  0.23768500  0.30630389  0.79578412    -0.01600
H337        H  0.25790179  0.27601201  0.89431629     0.12200
H338        H  0.24629594  0.33712353  0.86910912     0.12200
O339        O  0.07097890  0.81780628  0.33188539    -0.81500
O340        O  0.28672676  0.92186854  0.41626888    -0.66200
O341        O  0.17559567  0.85504525  0.32946377    -1.12800
C342        C  0.13642769  0.73262149  0.43132079     1.05400
O343        O  0.29981925  0.87193411  0.39228748    -0.79400
O344        O  0.24623105  0.79037998  0.34510751    -0.67000
Ni345      Ni  0.13493571  0.87670168  0.32209211     1.34900
C346        C  0.21816434  0.77894093  0.30902772     0.84100
O347        O  0.26037090  0.95057246  0.34516360    -0.79900
O348        O  0.19371082  0.93811632  0.30792575    -0.90200
C349        C  0.30596782  0.90139498  0.42346345     0.83700
O350        O  0.13206112  0.89379500  0.38927057    -0.68400
O351        O  0.18508703  0.75362814  0.43184801    -0.87700
C352        C  0.15836074  0.90171679  0.42616367     0.84500
C353        C  0.24020375  0.96436073  0.32044267     1.06100
H354        H  0.18800701  0.83166249  0.43176947     0.37900
O355        O  0.20147355  0.83168113  0.39984190    -1.10300
O356        O  0.17860727  0.77947429  0.31186908    -0.67000
Ni357      Ni  0.14429583  0.79641491  0.36025652     1.26300
O358        O  0.19657994  0.90075746  0.42370386    -0.67200
O359        O  0.11485886  0.74146491  0.40048320    -0.79500
C360        C  0.05560900  0.77817839  0.31575361     0.83900
O361        O  0.08390029  0.76458813  0.31943678    -0.66700
Ni362      Ni  0.24341957  0.81253116  0.40941833     1.27400
Ni363      Ni  0.23196530  0.89109817  0.37244528     1.26100
H364        H  0.18914326  0.85416109  0.29789423     0.38500
N365        N  0.26509635  0.75286664  0.25172393    -0.04100
C366        C  0.22816525  0.76009000  0.26264182    -0.01500
C367        C  0.18792668  0.73200640  0.23163202    -0.24400
C368        C  0.19795936  0.70498328  0.20502137    -0.24600
C369        C  0.24415975  0.71652261  0.21982638    -0.01600
H370        H  0.15159837  0.72698940  0.23271975     0.12200
H371        H  0.17063431  0.67551897  0.18280036     0.12200
N372        N  0.28602185  0.53638640  0.26931204    -0.04100
C373        C  0.26795628  0.51437337  0.31246093    -0.01500
C374        C  0.26436131  0.54115394  0.34688278    -0.24400
C375        C  0.28018690  0.58061637  0.32503591    -0.24600
C376        C  0.29081680  0.57620975  0.27685179    -0.01600
H377        H  0.24967338  0.03207716  0.38362994     0.12200
H378        H  0.28294563  0.60911357  0.34291063     0.12200
N379        N  0.50187763  0.74611466  0.30173760    -0.04100
C380        C  0.47024909  0.75633915  0.32068039    -0.01500
C381        C  0.44611827  0.73386208  0.36301582    -0.24400
C382        C  0.45318643  0.70101755  0.36395512    -0.24600
C383        C  0.47846291  0.70451842  0.32025608    -0.01600
H384        H  0.41792117  0.73460549  0.38472290     0.12200
H385        H  0.42950015  0.67102632  0.38594797     0.12200
C386        C  0.31783287  0.89933161  0.47238640     0.79600
N387        N  0.36462288  0.91092488  0.48066344    -0.78700
C388        C  0.37631092  0.90816217  0.52543156     0.82100
N389        N  0.33656608  0.88156987  0.55683705    -0.78600
C390        C  0.29344607  0.87932554  0.55385935     0.82200
N391        N  0.28304374  0.88648763  0.50985651    -0.80300
C392        C  0.14640303  0.91628239  0.47294024     0.79600
N393        N  0.13384618  0.94545575  0.47108159    -0.78700
C394        C  0.11996945  0.95880875  0.51150842     0.82100
N395        N  0.12816727  0.94931531  0.55457032    -0.78600
C396        C  0.13464354  0.91593300  0.55841907     0.82200
N397        N  0.14432326  0.89942719  0.51689773    -0.80300
O398        O  0.47047033  0.61342529  0.10923119    -0.81500
O399        O  0.42318874  0.50904039  0.29022143    -0.66200
O400        O  0.41154359  0.54904054  0.17016169    -1.12800
C401        C  0.45343639  0.66254318  0.29024698     1.05400
O402        O  0.39658091  0.54374163  0.33749169    -0.79400
O403        O  0.33980726  0.51478091  0.25587076    -0.67000
Ni404      Ni  0.45079586  0.55284978  0.11516098     1.34900
C405        C  0.32609844  0.53842638  0.24202241     0.84100
O406        O  0.39216179  0.97090306  0.19716529    -0.79900
O407        O  0.43512293  0.99281182  0.12514911    -0.90200
C408        C  0.41598840  0.52231465  0.33196869     0.83700
O409        O  0.51393352  0.58066556  0.14429449    -0.68400
O410        O  0.43009392  0.62714127  0.31577586    -0.87700
C411        C  0.02085663  0.56646387  0.18086839     0.84500
C412        C  0.41390887  0.96565810  0.16094681     1.06100
H413        H  0.47417184  0.60127205  0.26687578     0.37900
O414        O  0.44035517  0.58301275  0.25333973    -1.10300
O415        O  0.35850048  0.57532701  0.21864016    -0.67000
Ni416      Ni  0.43074914  0.60592464  0.20080999     1.26300
O417        O  0.48739407  0.54622589  0.21491628    -0.67200
O418        O  0.45185454  0.66079196  0.24283547    -0.79500
C419        C  0.43501497  0.61726610  0.10406196     0.83900
O420        O  0.41765334  0.62515834  0.14240934    -0.66700
Ni421      Ni  0.38464166  0.57046074  0.28942615     1.27400
Ni422      Ni  0.41780006  0.52715472  0.22741014     1.26100
H423        H  0.37597045  0.53026293  0.16123319     0.38500
O424        O  0.42553594  0.86228216  0.35158573    -0.81500
O425        O  0.40506478  0.76941045  0.15187119    -0.66200
O426        O  0.44066129  0.84585868  0.26561920    -1.12800
C427        C  0.42201256  0.93150977  0.16802399     1.05400
O428        O  0.47236462  0.83377308  0.12640815    -0.79400
O429        O  0.52417027  0.91736044  0.16791859    -0.67000
Ni430      Ni  0.39324683  0.80829524  0.31237476     1.34900
C431        C  0.03232296  0.94367931  0.20383456     0.84100
O432        O  0.43662508  0.76948344  0.25157832    -0.79900
O433        O  0.44175733  0.80013027  0.32660633    -0.90200
C434        C  0.43120756  0.79509248  0.11574503     0.83700
O435        O  0.34180781  0.81173076  0.29160301    -0.68400
O436        O  0.45009394  0.92653958  0.13822540    -0.87700
C437        C  0.32034939  0.78036681  0.25901818     0.84500
C438        C  0.45068593  0.77771380  0.29673962     1.06100
H439        H  0.38081198  0.83153732  0.17184728     0.37900
O440        O  0.41531493  0.84731994  0.18308699    -1.10300
O441        O  0.49592357  0.93425708  0.23294091    -0.67000
Ni442      Ni  0.42368619  0.88089103  0.24007689     1.26300
O443        O  0.34752670  0.77017493  0.23326096    -0.67200
O444        O  0.40516743  0.91245739  0.20883745    -0.79500
C445        C  0.44290868  0.90237803  0.33897024     0.83900
O446        O  0.42969227  0.91055267  0.30089850    -0.66700
Ni447      Ni  0.46268249  0.88055271  0.13207479     1.27400
Ni448      Ni  0.42250174  0.80579909  0.21332951     1.26100
H449        H  0.47659473  0.86322618  0.27303614     0.38500
O450        O  0.18385540  0.54180457  0.10222547    -0.81500
O451        O  0.13615230  0.59693146  0.29237796    -0.66200
O452        O  0.17254090  0.59069231  0.16527148    -1.12800
C453        C  0.30423570  0.61072307  0.23936555     1.05400
O454        O  0.19206540  0.59721048  0.33534296    -0.79400
O455        O  0.24063905  0.66570368  0.26986758    -0.67000
Ni456      Ni  0.12664820  0.54045427  0.12550499     1.34900
C457        C  0.24993124  0.67964690  0.22680468     0.84100
O458        O  0.10109207  0.59583916  0.21075699    -0.79900
O459        O  0.06999136  0.54223791  0.15017358    -0.90200
C460        C  0.14832850  0.58662211  0.32819018     0.83700
O461        O  0.11395915  0.49747560  0.17041255    -0.68400
O462        O  0.30633313  0.64509345  0.25327869    -0.87700
C463        C  0.08396886  0.48922774  0.20554906     0.84500
C464        C  0.06691588  0.56882616  0.18047359     1.06100
H465        H  0.18804801  0.54998224  0.25003195     0.37900
O466        O  0.20300327  0.58150493  0.24337919    -1.10300
O467        O  0.26234906  0.66239008  0.19190223    -0.67000
Ni468      Ni  0.23275554  0.59647666  0.17913629     1.26300
O469        O  0.09413992  0.52245131  0.23395730    -0.67200
O470        O  0.29097492  0.59775103  0.19618684    -0.79500
C471        C  0.21942718  0.58005256  0.08463188     0.83900
O472        O  0.25592445  0.60877876  0.11233631    -0.66700
Ni473      Ni  0.24871455  0.62285886  0.29307978     1.27400
Ni474      Ni  0.15122597  0.58937349  0.22902835     1.26100
H475        H  0.18125168  0.61832025  0.15141019     0.38500
O476        O  0.05086580  0.93995232  0.46879746    -0.81500
O477        O  0.48361846  0.53621189  0.37409352    -0.66200
O478        O  0.06064286  0.51434444  0.44672310    -1.12800
C479        C  0.42532835  0.94938529  0.54411583     1.05400
O480        O  0.40893229  0.50363046  0.41383693    -0.79400
O481        O  0.48989233  0.55975545  0.47729833    -0.67000
Ni482      Ni  0.07630813  0.97751723  0.41527260     1.34900
C483        C  0.03126223  0.57407573  0.49860053     0.84100
O484        O  0.07930874  0.56543026  0.37551064    -0.79900
O485        O  0.10185504  0.51731014  0.36227310    -0.90200
C486        C  0.43651076  0.51886744  0.37539856     0.83700
O487        O  0.01012124  0.93271793  0.39106333    -0.68400
O488        O  0.43632248  0.98874663  0.53964499    -0.87700
C489        C  0.48543716  0.94014967  0.36555832     0.84500
C490        C  0.10839107  0.55542523  0.35822277     1.06100
H491        H  0.44490541  0.95048072  0.43705886     0.37900
O492        O  0.46608506  0.98034702  0.45245512    -1.07300
O493        O  0.03696869  0.54621941  0.51957507    -0.67000
Ni494      Ni  0.51359200  0.98354187  0.49609719     1.26300
O495        O  0.49936749  0.97996786  0.36066009    -0.67200
O496        O  0.46279003  0.94816561  0.54538683    -0.79500
C497        C  0.07612880  0.96039344  0.50595472     0.83900
O498        O  0.06529774  0.98459690  0.53048909    -0.66700
Ni499      Ni  0.42582203  0.49885070  0.47749549     1.27400
Ni500      Ni  0.02132152  0.52475828  0.41145313     1.26100
H501        H  0.09168582  0.54270486  0.45816476     0.38500
C502        C  0.10601596  0.69905287  0.47184279     0.79600
N503        N  0.11266414  0.71564740  0.51922199    -0.78700
C504        C  0.10327987  0.68824914  0.55680827     0.82100
N505        N  0.08969167  0.64543448  0.54528435    -0.78600
C506        C  0.07170205  0.62531544  0.50139412     0.82200
N507        N  0.08138996  0.65280128  0.46387884    -0.80300
O508        O  0.08746356  0.61273866  0.90655734    -0.81500
O509        O  0.45085167  0.93692913  0.04607401    -0.66200
O510        O  0.03951938  0.53636168  0.95706308    -1.12800
C511        C  0.40112745  0.92748811  0.86606796     1.05400
O512        O  0.48227816  0.91638331  0.99064057    -0.79400
O513        O  0.99823209  0.92479015  0.89966535    -0.67000
Ni514      Ni  0.06667146  0.59842298  0.97177789     1.34900
C515        C  0.02185811  0.95687788  0.87064432     0.84100
O516        O  0.04601442  0.52695951  0.05587162    -0.79900
O517        O  0.05317262  0.58664121  0.03706542    -0.90200
C518        C  0.45236222  0.90479045  0.02614330     0.83700
O519        O  0.99787730  0.57804662  0.96381993    -0.68400
O520        O  0.40264224  0.89815630  0.88724942    -0.87700
C521        C  0.95961766  0.54960371  0.99136299     0.84500
C522        C  0.07480019  0.56978987  0.04967903     1.06100
H523        H  0.41803635  0.95289364  0.96538175     0.37900
O524        O  0.45115080  0.96005356  0.95622833    -1.10300
O525        O  0.01835127  0.98909326  0.87143121    -0.67000
Ni526      Ni  0.98492890  0.50706694  0.91259348     1.26300
O527        O  0.95913546  0.52045664  0.01764339    -0.67200
O528        O  0.42850018  0.97101611  0.87344487    -0.79500
C529        C  0.06576128  0.59024140  0.86823470     0.83900
O530        O  0.01940300  0.55475625  0.86728364    -0.66700
Ni531      Ni  0.44122303  0.90515038  0.93958162     1.27400
Ni532      Ni  0.99627043  0.49195249  0.00606441     1.26100
H533        H  0.06561537  0.53296881  0.94554542     0.38500
O534        O  0.06266260  0.87873824  0.60892806    -0.81500
O535        O  0.05297970  0.96565118  0.79095662    -0.66200
O536        O  0.10322247  0.94377759  0.67549151    -1.12800
C537        C  0.09413576  0.84354042  0.77003607     1.05400
O538        O  0.07111481  0.93480101  0.84625016    -0.79400
O539        O  0.15646781  0.96928154  0.79262918    -0.67000
Ni540      Ni  0.07422816  0.93631925  0.61541754     1.34900
C541        C  0.18407964  0.97283729  0.75669793     0.84100
O542        O  0.09000393  0.50676886  0.70510442    -0.79900
O543        O  0.08682394  0.49494548  0.62365427    -0.90200
C544        C  0.05189561  0.95399101  0.83370856     0.83700
O545        O  0.00489220  0.90776890  0.63217013    -0.68400
O546        O  0.12954854  0.88314115  0.78405216    -0.87700
C547        C  0.98430244  0.90750635  0.67197408     0.84500
C548        C  0.09221388  0.51852791  0.66187109     1.06100
H549        H  0.02955540  0.87517316  0.75759276     0.37900
O550        O  0.06565546  0.90041987  0.75478759    -1.10300
O551        O  0.16706376  0.94026272  0.72353845    -0.67000
Ni552      Ni  0.09731476  0.89262048  0.69833320     1.26300
O553        O  0.00671970  0.91937574  0.71215486    -0.67200
O554        O  0.08452323  0.83823934  0.72556365    -0.79500
C555        C  0.10564773  0.88644165  0.60063807     0.83900
O556        O  0.12798323  0.88735954  0.63759249    -0.66700
Ni557      Ni  0.10080401  0.91029068  0.81328672     1.27400
Ni558      Ni  0.07707455  0.95424269  0.73181199     1.26100
H559        H  0.13893210  0.96960358  0.67172905     0.38500
O560        O  0.12435457  0.65032508  0.81926676    -0.81500
O561        O  0.10784799  0.71954152  0.64148321    -0.66200
O562        O  0.06282869  0.64403548  0.75460175    -1.12800
C563        C  0.09757902  0.56048431  0.65898738     1.05400
O564        O  0.04356587  0.65204360  0.61892794    -0.79400
O565        O  0.99577441  0.57293262  0.65621807    -0.67000
Ni566      Ni  0.08192224  0.66837562  0.81735877     1.34900
C567        C  0.48824746  0.54656982  0.68837098     0.84100
O568        O  0.06945473  0.72390498  0.74268111    -0.79900
O569        O  0.03855040  0.68522097  0.81278515    -0.90200
C570        C  0.08255429  0.69063480  0.60624704     0.83700
O571        O  0.14126046  0.72727978  0.80121674    -0.68400
O572        O  0.07292304  0.56441132  0.62735684    -0.87700
C573        C  0.17364609  0.73564769  0.76756148     0.84500
C574        C  0.04643650  0.71558730  0.78554393     1.06100
H575        H  0.13604441  0.66278802  0.66167252     0.37900
O576        O  0.10059472  0.64565899  0.67277021    -1.10300
O577        O  0.02297886  0.55764574  0.71694514    -0.67000
Ni578      Ni  0.09066552  0.61378673  0.72798943     1.26300
O579        O  0.15853418  0.72266055  0.72425978    -0.67200
O580        O  0.11859963  0.58724316  0.69553313    -0.79500
C581        C  0.09509474  0.60794516  0.82353806     0.83900
O582        O  0.08087192  0.58317102  0.78576128    -0.66700
Ni583      Ni  0.05842684  0.60906542  0.62118548     1.27400
Ni584      Ni  0.08662223  0.68581146  0.70348099     1.26100
H585        H  0.02579565  0.62316185  0.75408678     0.38500
O586        O  0.32930288  0.93914892  0.60786079    -0.81500
O587        O  0.39869958  0.92298700  0.78690977    -0.66200
O588        O  0.33731057  0.89349648  0.67014198    -1.12800
C589        C  0.26853910  0.96389700  0.74169718     1.05400
O590        O  0.32642251  0.89649956  0.82802045    -0.79400
O591        O  0.24023085  0.87317286  0.78958690    -0.67000
Ni592      Ni  0.37995726  0.93023316  0.61999374     1.34900
C593        C  0.24003110  0.84196974  0.76679455     0.84100
O594        O  0.40610330  0.88566034  0.70738559    -0.79900
O595        O  0.43138496  0.92132235  0.63628861    -0.90200
C596        C  0.37291539  0.91250523  0.82532196     0.83700
O597        O  0.41308043  0.98802069  0.65169225    -0.68400
O598        O  0.28541338  0.96559670  0.78269427    -0.87700
C599        C  0.44141896  0.49982395  0.68668736     0.84500
C600        C  0.43618865  0.90173917  0.67056102     1.06100
H601        H  0.35788328  0.96833449  0.73842580     0.37900
O602        O  0.33508773  0.93580926  0.74379134    -1.10300
O603        O  0.25123790  0.84710601  0.72164929    -0.67000
Ni604      Ni  0.29154754  0.90749956  0.69008779     1.26300
O605        O  0.43276401  0.97059727  0.71598722    -0.67200
O606        O  0.25198552  0.92994547  0.71117355    -0.79500
C607        C  0.28759455  0.90201748  0.59601983     0.83900
O608        O  0.25480836  0.88036293  0.63023067    -0.66700
Ni609      Ni  0.30429970  0.92966438  0.80546455     1.27400
Ni610      Ni  0.37038834  0.90968544  0.72820053     1.26100
H611        H  0.31987235  0.86132274  0.66186005     0.38500
C612        C  0.18421409  0.59875581  0.96998116     0.79600
N613        N  0.14263920  0.59687761  0.98595299    -0.78700
C614        C  0.12884971  0.59176975  0.03381470     0.82100
N615        N  0.16054459  0.59454562  0.06519431    -0.78600
C616        C  0.20232911  0.59682224  0.05031880     0.82200
N617        N  0.21276596  0.59674939  0.00229435    -0.80300
C618        C  0.40213984  0.78931612  0.98484432     0.79600
N619        N  0.40624137  0.82897903  0.98660525    -0.78700
C620        C  0.41363975  0.85356270  0.02890143     0.82100
N621        N  0.40752052  0.83325815  0.07057793    -0.78600
C622        C  0.40664330  0.79533684  0.07152964     0.82200
N623        N  0.40513039  0.77382360  0.02801085    -0.80300
C624        C  0.39922698  0.60726912  0.97810603     0.79600
N625        N  0.40064771  0.61859118  0.02641745    -0.78700
C626        C  0.40528084  0.59492578  0.05963632     0.82100
N627        N  0.40473954  0.55870035  0.04382297    -0.78600
C628        C  0.41887037  0.55665714  0.99780227     0.82200
N629        N  0.41264937  0.57892704  0.96391636    -0.80300
O630        O  0.32231405  0.76380202  0.83122869    -0.81500
O631        O  0.39720663  0.65810990  0.92672370    -0.66200
O632        O  0.34800352  0.70034450  0.83488191    -1.12800
C633        C  0.19734203  0.60035297  0.91807401     1.05400
O634        O  0.32674496  0.58540228  0.93423803    -0.79400
O635        O  0.27530392  0.56969700  0.84846685    -0.67000
Ni636      Ni  0.38431048  0.76540241  0.82795629     1.34900
C637        C  0.26285903  0.58033953  0.81168872     0.84100
O638        O  0.44305874  0.71550308  0.84858862    -0.79900
O639        O  0.45015370  0.77415542  0.81623501    -0.90200
C640        C  0.37347993  0.61781953  0.94375745     0.83700
O641        O  0.39406821  0.78278107  0.89727772    -0.68400
O642        O  0.20680295  0.57360689  0.89990632    -0.87700
C643        C  0.39663760  0.76554842  0.93508020     0.84500
C644        C  0.46766673  0.75107471  0.82185645     1.06100
H645        H  0.30594142  0.66021027  0.93822945     0.37900
O646        O  0.30584703  0.64717556  0.90689330    -1.10300
O647        O  0.25767213  0.61331101  0.81369671    -0.67000
Ni648      Ni  0.27893560  0.66623711  0.86099609     1.26300
O649        O  0.39397920  0.72899906  0.93163164    -0.67200
O650        O  0.21318339  0.63568465  0.89501421    -0.79500
C651        C  0.27529669  0.73447375  0.81861339     0.83900
O652        O  0.25550547  0.69139566  0.81742152    -0.66700
Ni653      Ni  0.26790875  0.58198557  0.91515241     1.27400
Ni654      Ni  0.37479707  0.68134952  0.88062647     1.26100
H655        H  0.34781615  0.68744540  0.80342018     0.38500
N656        N  0.23770819  0.01093874  0.75549832    -0.04100
C657        C  0.26256973  0.05749510  0.76392725    -0.01500
C658        C  0.30998288  0.07948088  0.73994949    -0.24400
C659        C  0.31505606  0.04637074  0.72099534    -0.24600
C660        C  0.26988556  0.00424968  0.73158003    -0.01600
H661        H  0.34161324  0.61555755  0.74392290     0.12200
H662        H  0.35054856  0.05261993  0.70762984     0.12200
N663        N  0.01797617  0.76682721  0.79866658    -0.04100
C664        C  0.03847131  0.74650576  0.81387959    -0.01500
C665        C  0.07198225  0.77205381  0.85089360    -0.24400
C666        C  0.08313631  0.81425351  0.84872467    -0.24600
C667        C  0.05809028  0.81129316  0.80823297    -0.01600
H668        H  0.09562530  0.76512458  0.86807785     0.12200
H669        H  0.11777098  0.84493369  0.86336957     0.12200
N670        N  0.22779301  0.76537645  0.77968380    -0.04100
C671        C  0.24182194  0.75184709  0.81825633    -0.01500
C672        C  0.24609832  0.77734861  0.85915776    -0.24400
C673        C  0.24230077  0.81055865  0.84546730    -0.24600
C674        C  0.23768494  0.80630388  0.79578411    -0.01600
H675        H  0.25790196  0.77601219  0.89431629     0.12200
H676        H  0.24629578  0.83712346  0.86910909     0.12200
O677        O  0.57097890  0.31780622  0.33188545    -0.81500
O678        O  0.78672674  0.42186853  0.41626886    -0.66200
O679        O  0.67559570  0.35504527  0.32946374    -1.12800
C680        C  0.63642769  0.23262150  0.43132078     1.05400
O681        O  0.79981927  0.37193408  0.39228756    -0.79400
O682        O  0.74623100  0.29037993  0.34510753    -0.67000
Ni683      Ni  0.63493568  0.37670166  0.32209210     1.34900
C684        C  0.71816435  0.27894096  0.30902771     0.84100
O685        O  0.76037084  0.45057240  0.34516358    -0.79900
O686        O  0.69371081  0.43811639  0.30792577    -0.90200
C687        C  0.80596791  0.40139504  0.42346344     0.83700
O688        O  0.63206102  0.39379495  0.38927057    -0.68400
O689        O  0.68508700  0.25362807  0.43184800    -0.87700
C690        C  0.65836068  0.40171681  0.42616364     0.84500
C691        C  0.74020377  0.46436075  0.32044266     1.06100
H692        H  0.68800688  0.33166240  0.43176947     0.37900
O693        O  0.70147350  0.33168110  0.39984192    -1.10300
O694        O  0.67860726  0.27947431  0.31186910    -0.67000
Ni695      Ni  0.64429583  0.29641493  0.36025650     1.26300
O696        O  0.69657983  0.40075741  0.42370385    -0.67200
O697        O  0.61485889  0.24146498  0.40048321    -0.79500
C698        C  0.55560899  0.27817836  0.31575360     0.83900
O699        O  0.58390026  0.26458808  0.31943676    -0.66700
Ni700      Ni  0.74341951  0.31253111  0.40941836     1.27400
Ni701      Ni  0.73196525  0.39109814  0.37244529     1.26100
H702        H  0.68914342  0.35416121  0.29789423     0.38500
N703        N  0.76509636  0.25286673  0.25172386    -0.04100
C704        C  0.72816528  0.26009014  0.26264176    -0.01500
C705        C  0.68792669  0.23200652  0.23163202    -0.24400
C706        C  0.69795939  0.20498339  0.20502148    -0.24600
C707        C  0.74415978  0.21652270  0.21982636    -0.01600
H708        H  0.65159838  0.22698950  0.23271974     0.12200
H709        H  0.67063426  0.17551900  0.18280051     0.12200
N710        N  0.78602180  0.03638636  0.26931202    -0.04100
C711        C  0.76795616  0.01437331  0.31246090    -0.01500
C712        C  0.76436113  0.04115385  0.34688276    -0.24400
C713        C  0.78018676  0.08061632  0.32503595    -0.24600
C714        C  0.79081676  0.07620974  0.27685182    -0.01600
H715        H  0.74967366  0.53207729  0.38362998     0.12200
H716        H  0.78294552  0.10911350  0.34291069     0.12200
N717        N  0.00187755  0.24611462  0.30173758    -0.04100
C718        C  0.97024896  0.25633905  0.32068038    -0.01500
C719        C  0.94611813  0.23386199  0.36301582    -0.24400
C720        C  0.95318637  0.20101754  0.36395506    -0.24600
C721        C  0.97846283  0.20451840  0.32025605    -0.01600
H722        H  0.91792103  0.23460534  0.38472296     0.12200
H723        H  0.92950012  0.17102628  0.38594791     0.12200
C724        C  0.81783306  0.39933182  0.47238641     0.79600
N725        N  0.86462301  0.41092495  0.48066343    -0.78700
C726        C  0.87631100  0.40816216  0.52543155     0.82100
N727        N  0.83656613  0.38156991  0.55683704    -0.78600
C728        C  0.79344615  0.37932560  0.55385931     0.82200
N729        N  0.78304391  0.38648781  0.50985648    -0.80300
C730        C  0.64640306  0.41628249  0.47294022     0.79600
N731        N  0.63384627  0.44545590  0.47108161    -0.78700
C732        C  0.61996944  0.45880879  0.51150846     0.82100
N733        N  0.62816716  0.44931524  0.55457034    -0.78600
C734        C  0.63464354  0.41593298  0.55841906     0.82200
N735        N  0.64432318  0.39942718  0.51689768    -0.80300
O736        O  0.97047034  0.11342528  0.10923115    -0.81500
O737        O  0.92318873  0.00904037  0.29022143    -0.66200
O738        O  0.91154380  0.04904065  0.17016176    -1.12800
C739        C  0.95343646  0.16254318  0.29024697     1.05400
O740        O  0.89658093  0.04374164  0.33749167    -0.79400
O741        O  0.83980717  0.01478082  0.25587080    -0.67000
Ni742      Ni  0.95079580  0.05284973  0.11516095     1.34900
C743        C  0.82609840  0.03842632  0.24202242     0.84100
O744        O  0.89216183  0.47090304  0.19716526    -0.79900
O745        O  0.93512312  0.49281194  0.12514915    -0.90200
C746        C  0.91598836  0.02231461  0.33196869     0.83700
O747        O  0.01393347  0.08066544  0.14429437    -0.68400
O748        O  0.93009400  0.12714126  0.31577583    -0.87700
C749        C  0.52085665  0.06646387  0.18086837     0.84500
C750        C  0.91390894  0.46565814  0.16094678     1.06100
H751        H  0.97417189  0.10127198  0.26687589     0.37900
O752        O  0.94035525  0.08301276  0.25333978    -1.10300
O753        O  0.85850052  0.07532695  0.21864018    -0.67000
Ni754      Ni  0.93074927  0.10592467  0.20081003     1.26300
O755        O  0.98739414  0.04622601  0.21491633    -0.67200
O756        O  0.95185467  0.16079197  0.24283546    -0.79500
C757        C  0.93501500  0.11726610  0.10406196     0.83900
O758        O  0.91765338  0.12515830  0.14240938    -0.66700
Ni759      Ni  0.88464168  0.07046072  0.28942614     1.27400
Ni760      Ni  0.91780015  0.02715478  0.22741017     1.26100
H761        H  0.87597080  0.03026309  0.16123335     0.38500
O762        O  0.92553611  0.36228219  0.35158564    -0.81500
O763        O  0.90506473  0.26941052  0.15187118    -0.66200
O764        O  0.94066143  0.34585877  0.26561921    -1.12800
C765        C  0.92201256  0.43150979  0.16802395     1.05400
O766        O  0.97236458  0.33377314  0.12640813    -0.79400
O767        O  0.02417016  0.41736041  0.16791861    -0.67000
Ni768      Ni  0.89324694  0.30829523  0.31237475     1.34900
C769        C  0.53232291  0.44367933  0.20383456     0.84100
O770        O  0.93662490  0.26948331  0.25157832    -0.79900
O771        O  0.94175739  0.30013025  0.32660631    -0.90200
C772        C  0.93120753  0.29509255  0.11574502     0.83700
O773        O  0.84180783  0.31173068  0.29160308    -0.68400
O774        O  0.95009392  0.42653959  0.13822538    -0.87700
C775        C  0.82034937  0.28036680  0.25901820     0.84500
C776        C  0.95068584  0.27771369  0.29673960     1.06100
H777        H  0.88081196  0.33153745  0.17184737     0.37900
O778        O  0.91531491  0.34732001  0.18308704    -1.10300
O779        O  0.99592359  0.43425722  0.23294089    -0.67000
Ni780      Ni  0.92368625  0.38089113  0.24007694     1.26300
O781        O  0.84752662  0.27017489  0.23326096    -0.67200
O782        O  0.90516746  0.41245746  0.20883745    -0.79500
C783        C  0.94290871  0.40237807  0.33897027     0.83900
O784        O  0.92969230  0.41055275  0.30089857    -0.66700
Ni785      Ni  0.96268242  0.38055272  0.13207478     1.27400
Ni786      Ni  0.92250170  0.30579909  0.21332953     1.26100
H787        H  0.97659502  0.36322629  0.27303607     0.38500
O788        O  0.68385540  0.04180465  0.10222549    -0.81500
O789        O  0.63615222  0.09693138  0.29237798    -0.66200
O790        O  0.67254096  0.09069244  0.16527149    -1.12800
C791        C  0.80423574  0.11072312  0.23936562     1.05400
O792        O  0.69206540  0.09721045  0.33534291    -0.79400
O793        O  0.74063913  0.16570383  0.26986759    -0.67000
Ni794      Ni  0.62664824  0.04045439  0.12550498     1.34900
C795        C  0.74993130  0.17964700  0.22680468     0.84100
O796        O  0.60109200  0.09583907  0.21075702    -0.79900
O797        O  0.56999134  0.04223789  0.15017357    -0.90200
C798        C  0.64832849  0.08662210  0.32819021     0.83700
O799        O  0.61395915  0.99747571  0.17041249    -0.68400
O800        O  0.80633324  0.14509356  0.25327872    -0.87700
C801        C  0.58396888  0.98922779  0.20554903     0.84500
C802        C  0.56691586  0.06882612  0.18047357     1.06100
H803        H  0.68804820  0.04998230  0.25003204     0.37900
O804        O  0.70300332  0.08150499  0.24337923    -1.10300
O805        O  0.76234903  0.16239009  0.19190224    -0.67000
Ni806      Ni  0.73275552  0.09647668  0.17913633     1.26300
O807        O  0.59413999  0.02245132  0.23395737    -0.67200
O808        O  0.79097485  0.09775098  0.19618693    -0.79500
C809        C  0.71942717  0.08005264  0.08463188     0.83900
O810        O  0.75592442  0.10877882  0.11233632    -0.66700
Ni811      Ni  0.74871461  0.12285898  0.29307978     1.27400
Ni812      Ni  0.65122596  0.08937349  0.22902838     1.26100
H813        H  0.68125190  0.11832051  0.15141017     0.38500
O814        O  0.55086578  0.43995231  0.46879750    -0.81500
O815        O  0.98361833  0.03621173  0.37409351    -0.66200
O816        O  0.56064285  0.01434443  0.44672310    -1.12800
C817        C  0.92532837  0.44938528  0.54411586     1.05400
O818        O  0.90893225  0.00363058  0.41383700    -0.79400
O819        O  0.98989244  0.05975540  0.47729825    -0.67000
Ni820      Ni  0.57630816  0.47751722  0.41527262     1.34900
C821        C  0.53126228  0.07407570  0.49860049     0.84100
O822        O  0.57930866  0.06543013  0.37551061    -0.79900
O823        O  0.60185510  0.01731013  0.36227309    -0.90200
C824        C  0.93651067  0.01886739  0.37539858     0.83700
O825        O  0.51012128  0.43271794  0.39106336    -0.68400
O826        O  0.93632238  0.48874657  0.53964501    -0.87700
C827        C  0.98543719  0.44014970  0.36555837     0.84500
C828        C  0.60839107  0.05542518  0.35822277     1.06100
H829        H  0.94490553  0.45048082  0.43705887     0.37900
O830        O  0.96608511  0.48034710  0.45245513    -1.07300
O831        O  0.53696868  0.04621936  0.51957512    -0.67000
Ni832      Ni  0.01359204  0.48354192  0.49609718     1.26300
O833        O  0.99936759  0.47996792  0.36066011    -0.67200
O834        O  0.96279011  0.44816569  0.54538687    -0.79500
C835        C  0.57612881  0.46039349  0.50595474     0.83900
O836        O  0.56529777  0.48459700  0.53048906    -0.66700
Ni837      Ni  0.92582205  0.99885075  0.47749552     1.27400
Ni838      Ni  0.52132146  0.02475819  0.41145313     1.26100
H839        H  0.59168581  0.04270485  0.45816473     0.38500
C840        C  0.60601596  0.19905287  0.47184277     0.79600
N841        N  0.61266426  0.21564742  0.51922197    -0.78700
C842        C  0.60327984  0.18824910  0.55680825     0.82100
N843        N  0.58969155  0.14543442  0.54528437    -0.78600
C844        C  0.57170207  0.12531542  0.50139411     0.82200
N845        N  0.58139011  0.15280130  0.46387882    -0.80300
O846        O  0.58746363  0.11273869  0.90655732    -0.81500
O847        O  0.95085159  0.43692907  0.04607401    -0.66200
O848        O  0.53951932  0.03636174  0.95706312    -1.12800
C849        C  0.90112743  0.42748818  0.86606796     1.05400
O850        O  0.98227817  0.41638338  0.99064057    -0.79400
O851        O  0.49823219  0.42479017  0.89966538    -0.67000
Ni852      Ni  0.56667150  0.09842306  0.97177790     1.34900
C853        C  0.52185815  0.45687789  0.87064437     0.84100
O854        O  0.54601437  0.02695948  0.05587164    -0.79900
O855        O  0.55317256  0.08664118  0.03706541    -0.90200
C856        C  0.95236221  0.40479045  0.02614330     0.83700
O857        O  0.49787738  0.07804679  0.96381994    -0.68400
O858        O  0.90264228  0.39815641  0.88724941    -0.87700
C859        C  0.45961774  0.04960383  0.99136299     0.84500
C860        C  0.57480013  0.06978983  0.04967903     1.06100
H861        H  0.91803618  0.45289356  0.96538175     0.37900
O862        O  0.95115071  0.46005357  0.95622834    -1.10300
O863        O  0.51835114  0.48909319  0.87143123    -0.67000
Ni864      Ni  0.48492890  0.00706693  0.91259350     1.26300
O865        O  0.45913560  0.02045677  0.01764338    -0.67200
O866        O  0.92850013  0.47101619  0.87344487    -0.79500
C867        C  0.56576127  0.09024140  0.86823470     0.83900
O868        O  0.51940298  0.05475625  0.86728370    -0.66700
Ni869      Ni  0.94122307  0.40515047  0.93958161     1.27400
Ni870      Ni  0.49627048  0.99195253  0.00606441     1.26100
H871        H  0.56561516  0.03296887  0.94554551     0.38500
O872        O  0.56266266  0.37873824  0.60892803    -0.81500
O873        O  0.55297951  0.46565103  0.79095660    -0.66200
O874        O  0.60322237  0.44377752  0.67549152    -1.12800
C875        C  0.59413578  0.34354045  0.77003610     1.05400
O876        O  0.57111504  0.43480125  0.84625019    -0.79400
O877        O  0.65646781  0.46928167  0.79262913    -0.67000
Ni878      Ni  0.57422816  0.43631925  0.61541752     1.34900
C879        C  0.68407959  0.47283734  0.75669789     0.84100
O880        O  0.59000404  0.00676894  0.70510445    -0.79900
O881        O  0.58682419  0.99494554  0.62365428    -0.90200
C882        C  0.55189564  0.45399105  0.83370857     0.83700
O883        O  0.50489221  0.40776882  0.63217014    -0.68400
O884        O  0.62954850  0.38314118  0.78405220    -0.87700
C885        C  0.48430244  0.40750629  0.67197408     0.84500
C886        C  0.59221406  0.01852799  0.66187110     1.06100
H887        H  0.52955514  0.37517305  0.75759289     0.37900
O888        O  0.56565534  0.40041980  0.75478763    -1.10300
O889        O  0.66706368  0.44026271  0.72353848    -0.67000
Ni890      Ni  0.59731469  0.39262041  0.69833321     1.26300
O891        O  0.50671965  0.41937560  0.71215488    -0.67200
O892        O  0.58452333  0.33823934  0.72556365    -0.79500
C893        C  0.60564775  0.38644161  0.60063805     0.83900
O894        O  0.62798321  0.38735946  0.63759251    -0.66700
Ni895      Ni  0.60080407  0.41029080  0.81328673     1.27400
Ni896      Ni  0.57707443  0.45424260  0.73181200     1.26100
H897        H  0.63893199  0.46960351  0.67172909     0.38500
O898        O  0.62435448  0.15032509  0.81926672    -0.81500
O899        O  0.60784790  0.21954148  0.64148316    -0.66200
O900        O  0.56282858  0.14403542  0.75460177    -1.12800
C901        C  0.59757916  0.06048436  0.65898736     1.05400
O902        O  0.54356584  0.15204353  0.61892791    -0.79400
O903        O  0.49577425  0.07293253  0.65621805    -0.67000
Ni904      Ni  0.58192221  0.16837569  0.81735876     1.34900
C905        C  0.98824737  0.04656977  0.68837095     0.84100
O906        O  0.56945462  0.22390492  0.74268109    -0.79900
O907        O  0.53855031  0.18522094  0.81278513    -0.90200
C908        C  0.58255422  0.19063474  0.60624699     0.83700
O909        O  0.64126044  0.22727993  0.80121668    -0.68400
O910        O  0.57292304  0.06441128  0.62735687    -0.87700
C911        C  0.67364607  0.23564774  0.76756146     0.84500
C912        C  0.54643641  0.21558725  0.78554391     1.06100
H913        H  0.63604431  0.16278804  0.66167249     0.37900
O914        O  0.60059463  0.14565895  0.67277021    -1.10300
O915        O  0.52297880  0.05764574  0.71694512    -0.67000
Ni916      Ni  0.59066550  0.11378672  0.72798942     1.26300
O917        O  0.65853412  0.22266041  0.72425979    -0.67200
O918        O  0.61859977  0.08724327  0.69553307    -0.79500
C919        C  0.59509469  0.10794515  0.82353804     0.83900
O920        O  0.58087200  0.08317100  0.78576128    -0.66700
Ni921      Ni  0.55842677  0.10906532  0.62118549     1.27400
Ni922      Ni  0.58662213  0.18581139  0.70348097     1.26100
H923        H  0.52579554  0.12316178  0.75408685     0.38500
O924        O  0.82930279  0.43914891  0.60786077    -0.81500
O925        O  0.89869963  0.42298714  0.78690979    -0.66200
O926        O  0.83731045  0.39349629  0.67014199    -1.12800
C927        C  0.76853903  0.46389697  0.74169717     1.05400
O928        O  0.82642252  0.39649968  0.82802047    -0.79400
O929        O  0.74023090  0.37317289  0.78958694    -0.67000
Ni930      Ni  0.87995714  0.43023310  0.61999376     1.34900
C931        C  0.74003108  0.34196972  0.76679457     0.84100
O932        O  0.90610331  0.38566034  0.70738562    -0.79900
O933        O  0.93138482  0.42132224  0.63628859    -0.90200
C934        C  0.87291540  0.41250529  0.82532196     0.83700
O935        O  0.91308043  0.48802073  0.65169223    -0.68400
O936        O  0.78541341  0.46559680  0.78269425    -0.87700
C937        C  0.94141888  0.99982387  0.68668735     0.84500
C938        C  0.93618858  0.40173912  0.67056101     1.06100
H939        H  0.85788296  0.46833413  0.73842573     0.37900
O940        O  0.83508759  0.43580910  0.74379134    -1.10300
O941        O  0.75123774  0.34710589  0.72164929    -0.67000
Ni942      Ni  0.79154747  0.40749941  0.69008780     1.26300
O943        O  0.93276402  0.47059735  0.71598720    -0.67200
O944        O  0.75198550  0.42994543  0.71117357    -0.79500
C945        C  0.78759452  0.40201744  0.59601982     0.83900
O946        O  0.75480836  0.38036280  0.63023068    -0.66700
Ni947      Ni  0.80429973  0.42966447  0.80546455     1.27400
Ni948      Ni  0.87038836  0.40968543  0.72820054     1.26100
H949        H  0.81987215  0.36132236  0.66186007     0.38500
C950        C  0.68421406  0.09875579  0.96998115     0.79600
N951        N  0.64263906  0.09687744  0.98595295    -0.78700
C952        C  0.62884962  0.09176968  0.03381467     0.82100
N953        N  0.66054458  0.09454572  0.06519430    -0.78600
C954        C  0.70232908  0.09682229  0.05031880     0.82200
N955        N  0.71276600  0.09674951  0.00229436    -0.80300
C956        C  0.90213980  0.28931614  0.98484433     0.79600
N957        N  0.90624129  0.32897903  0.98660525    -0.78700
C958        C  0.91363973  0.35356271  0.02890141     0.82100
N959        N  0.90752048  0.33325817  0.07057792    -0.78600
C960        C  0.90664324  0.29533686  0.07152965     0.82200
N961        N  0.90513028  0.27382358  0.02801086    -0.80300
C962        C  0.89922704  0.10726919  0.97810602     0.79600
N963        N  0.90064779  0.11859126  0.02641745    -0.78700
C964        C  0.90528088  0.09492581  0.05963632     0.82100
N965        N  0.90473961  0.05870040  0.04382297    -0.78600
C966        C  0.91887038  0.05665715  0.99780225     0.82200
N967        N  0.91264926  0.07892697  0.96391635    -0.80300
O968        O  0.82231396  0.26380197  0.83122873    -0.81500
O969        O  0.89720668  0.15811004  0.92672378    -0.66200
O970        O  0.84800354  0.20034446  0.83488185    -1.12800
C971        C  0.69734206  0.10035300  0.91807400     1.05400
O972        O  0.82674506  0.08540240  0.93423798    -0.79400
O973        O  0.77530386  0.06969690  0.84846689    -0.67000
Ni974      Ni  0.88431041  0.26540236  0.82795627     1.34900
C975        C  0.76285907  0.08033949  0.81168874     0.84100
O976        O  0.94305879  0.21550319  0.84858870    -0.79900
O977        O  0.95015367  0.27415542  0.81623492    -0.90200
C978        C  0.87348002  0.11781966  0.94375746     0.83700
O979        O  0.89406825  0.28278116  0.89727769    -0.68400
O980        O  0.70680301  0.07360695  0.89990634    -0.87700
C981        C  0.89663758  0.26554850  0.93508019     0.84500
C982        C  0.96766675  0.25107476  0.82185645     1.06100
H983        H  0.80594140  0.16021050  0.93822956     0.37900
O984        O  0.80584709  0.14717569  0.90689336    -1.10300
O985        O  0.75767225  0.11331102  0.81369671    -0.67000
Ni986      Ni  0.77893565  0.16623712  0.86099606     1.26300
O987        O  0.89397912  0.22899911  0.93163164    -0.67200
O988        O  0.71318349  0.13568472  0.89501423    -0.79500
C989        C  0.77529663  0.23447372  0.81861340     0.83900
O990        O  0.75550544  0.19139562  0.81742150    -0.66700
Ni991      Ni  0.76790884  0.08198568  0.91515243     1.27400
Ni992      Ni  0.87479711  0.18134960  0.88062652     1.26100
H993        H  0.84781630  0.18744531  0.80342014     0.38500
N994        N  0.73770814  0.51093875  0.75549823    -0.04100
C995        C  0.76256978  0.55749515  0.76392720    -0.01500
C996        C  0.80998301  0.57948087  0.73994954    -0.24400
C997        C  0.81505602  0.54637061  0.72099537    -0.24600
C998        C  0.76988545  0.50424961  0.73157996    -0.01600
H999        H  0.84161307  0.11555760  0.74392291     0.12200
H1000       H  0.85054844  0.55261962  0.70762989     0.12200
N1001       N  0.51797618  0.26682721  0.79866657    -0.04100
C1002       C  0.53847125  0.24650572  0.81387955    -0.01500
C1003       C  0.57198219  0.27205377  0.85089353    -0.24400
C1004       C  0.58313643  0.31425355  0.84872470    -0.24600
C1005       C  0.55809034  0.31129315  0.80823299    -0.01600
H1006       H  0.59562526  0.26512445  0.86807767     0.12200
H1007       H  0.61777105  0.34493365  0.86336964     0.12200
N1008       N  0.72779299  0.26537647  0.77968379    -0.04100
C1009       C  0.74182189  0.25184707  0.81825631    -0.01500
C1010       C  0.74609820  0.27734857  0.85915778    -0.24400
C1011       C  0.74230069  0.31055866  0.84546736    -0.24600
C1012       C  0.73768493  0.30630389  0.79578414    -0.01600
H1013       H  0.75790187  0.27601214  0.89431628     0.12200
H1014       H  0.74629571  0.33712347  0.86910914     0.12200
O1015       O  0.57097893  0.81780629  0.33188539    -0.81500
O1016       O  0.78672676  0.92186856  0.41626887    -0.66200
O1017       O  0.67559570  0.85504525  0.32946375    -1.12800
C1018       C  0.63642766  0.73262148  0.43132079     1.05400
O1019       O  0.79981919  0.87193409  0.39228750    -0.79400
O1020       O  0.74623106  0.79037998  0.34510754    -0.67000
Ni1021     Ni  0.63493574  0.87670168  0.32209210     1.34900
C1022       C  0.71816437  0.77894093  0.30902773     0.84100
O1023       O  0.76037085  0.95057247  0.34516366    -0.79900
O1024       O  0.69371084  0.93811633  0.30792569    -0.90200
C1025       C  0.80596779  0.90139497  0.42346347     0.83700
O1026       O  0.63206118  0.89379500  0.38927056    -0.68400
O1027       O  0.68508700  0.75362812  0.43184803    -0.87700
C1028       C  0.65836078  0.90171680  0.42616367     0.84500
C1029       C  0.74020375  0.96436074  0.32044267     1.06100
H1030       H  0.68800706  0.83166249  0.43176934     0.37900
O1031       O  0.70147356  0.83168112  0.39984183    -1.10300
O1032       O  0.67860729  0.77947429  0.31186907    -0.67000
Ni1033     Ni  0.64429585  0.79641491  0.36025649     1.26300
O1034       O  0.69657996  0.90075744  0.42370388    -0.67200
O1035       O  0.61485887  0.74146491  0.40048317    -0.79500
C1036       C  0.55560901  0.77817840  0.31575361     0.83900
O1037       O  0.58390029  0.76458813  0.31943680    -0.66700
Ni1038     Ni  0.74341951  0.81253115  0.40941834     1.27400
Ni1039     Ni  0.73196531  0.89109818  0.37244527     1.26100
H1040       H  0.68914331  0.85416109  0.29789423     0.38500
N1041       N  0.76509635  0.75286663  0.25172395    -0.04100
C1042       C  0.72816526  0.76009000  0.26264183    -0.01500
C1043       C  0.68792671  0.73200640  0.23163202    -0.24400
C1044       C  0.69795940  0.70498328  0.20502137    -0.24600
C1045       C  0.74415979  0.71652262  0.21982638    -0.01600
H1046       H  0.65159840  0.72698938  0.23271974     0.12200
H1047       H  0.67063437  0.67551896  0.18280035     0.12200
N1048       N  0.78602183  0.53638641  0.26931204    -0.04100
C1049       C  0.76795632  0.51437338  0.31246094    -0.01500
C1050       C  0.76436136  0.54115395  0.34688280    -0.24400
C1051       C  0.78018689  0.58061637  0.32503595    -0.24600
C1052       C  0.79081674  0.57620975  0.27685182    -0.01600
H1053       H  0.74967342  0.03207717  0.38362994     0.12200
H1054       H  0.78294563  0.60911358  0.34291067     0.12200
N1055       N  0.00187761  0.74611466  0.30173757    -0.04100
C1056       C  0.97024906  0.75633915  0.32068039    -0.01500
C1057       C  0.94611830  0.73386210  0.36301585    -0.24400
C1058       C  0.95318643  0.70101755  0.36395513    -0.24600
C1059       C  0.97846286  0.70451841  0.32025606    -0.01600
H1060       H  0.91792122  0.73460551  0.38472295     0.12200
H1061       H  0.92950016  0.67102633  0.38594800     0.12200
C1062       C  0.81783283  0.89933161  0.47238641     0.79600
N1063       N  0.86462284  0.91092486  0.48066344    -0.78700
C1064       C  0.87631089  0.90816215  0.52543156     0.82100
N1065       N  0.83656603  0.88156986  0.55683704    -0.78600
C1066       C  0.79344604  0.87932555  0.55385935     0.82200
N1067       N  0.78304372  0.88648767  0.50985651    -0.80300
C1068       C  0.64640304  0.91628240  0.47294023     0.79600
N1069       N  0.63384619  0.94545576  0.47108156    -0.78700
C1070       C  0.61996940  0.95880872  0.51150840     0.82100
N1071       N  0.62816731  0.94931534  0.55457030    -0.78600
C1072       C  0.63464352  0.91593299  0.55841906     0.82200
N1073       N  0.64432313  0.89942712  0.51689771    -0.80300
O1074       O  0.97047032  0.61342529  0.10923121    -0.81500
O1075       O  0.92318879  0.50904038  0.29022142    -0.66200
O1076       O  0.91154375  0.54904060  0.17016172    -1.12800
C1077       C  0.95343641  0.66254317  0.29024697     1.05400
O1078       O  0.89658095  0.54374162  0.33749168    -0.79400
O1079       O  0.83980721  0.51478091  0.25587077    -0.67000
Ni1080     Ni  0.95079591  0.55284979  0.11516098     1.34900
C1081       C  0.82609842  0.53842640  0.24202241     0.84100
O1082       O  0.89216177  0.97090308  0.19716530    -0.79900
O1083       O  0.93512288  0.99281184  0.12514912    -0.90200
C1084       C  0.91598845  0.52231465  0.33196868     0.83700
O1085       O  0.01393359  0.58066554  0.14429445    -0.68400
O1086       O  0.93009399  0.62714127  0.31577585    -0.87700
C1087       C  0.52085657  0.56646385  0.18086839     0.84500
C1088       C  0.91390882  0.96565812  0.16094683     1.06100
H1089       H  0.97417189  0.60127204  0.26687578     0.37900
O1090       O  0.94035521  0.58301274  0.25333973    -1.10300
O1091       O  0.85850050  0.57532703  0.21864018    -0.67000
Ni1092     Ni  0.93074920  0.60592466  0.20081000     1.26300
O1093       O  0.98739411  0.54622590  0.21491628    -0.67200
O1094       O  0.95185457  0.66079195  0.24283546    -0.79500
C1095       C  0.93501494  0.61726608  0.10406197     0.83900
O1096       O  0.91765333  0.62515833  0.14240934    -0.66700
Ni1097     Ni  0.88464170  0.57046074  0.28942615     1.27400
Ni1098     Ni  0.91780013  0.52715472  0.22741014     1.26100
H1099       H  0.87597077  0.53026305  0.16123325     0.38500
O1100       O  0.92553594  0.86228216  0.35158573    -0.81500
O1101       O  0.90506477  0.76941044  0.15187119    -0.66200
O1102       O  0.94066132  0.84585869  0.26561920    -1.12800
C1103       C  0.92201246  0.93150975  0.16802400     1.05400
O1104       O  0.97236455  0.83377311  0.12640814    -0.79400
O1105       O  0.02417022  0.91736045  0.16791853    -0.67000
Ni1106     Ni  0.89324684  0.80829525  0.31237476     1.34900
C1107       C  0.53232296  0.94367935  0.20383455     0.84100
O1108       O  0.93662490  0.76948335  0.25157836    -0.79900
O1109       O  0.94175734  0.80013030  0.32660635    -0.90200
C1110       C  0.93120753  0.79509250  0.11574502     0.83700
O1111       O  0.84180781  0.81173076  0.29160303    -0.68400
O1112       O  0.95009375  0.92653953  0.13822536    -0.87700
C1113       C  0.82034939  0.78036685  0.25901817     0.84500
C1114       C  0.95068585  0.77771376  0.29673963     1.06100
H1115       H  0.88081197  0.83153732  0.17184734     0.37900
O1116       O  0.91531493  0.84731995  0.18308701    -1.10300
O1117       O  0.99592361  0.93425706  0.23294094    -0.67000
Ni1118     Ni  0.92368622  0.88089104  0.24007691     1.26300
O1119       O  0.84752668  0.77017499  0.23326090    -0.67200
O1120       O  0.90516742  0.91245741  0.20883749    -0.79500
C1121       C  0.94290861  0.90237802  0.33897030     0.83900
O1122       O  0.92969229  0.91055268  0.30089850    -0.66700
Ni1123     Ni  0.96268239  0.88055271  0.13207477     1.27400
Ni1124     Ni  0.92250172  0.80579908  0.21332952     1.26100
H1125       H  0.97659477  0.86322617  0.27303613     0.38500
O1126       O  0.68385543  0.54180458  0.10222554    -0.81500
O1127       O  0.63615227  0.59693146  0.29237798    -0.66200
O1128       O  0.67254092  0.59069229  0.16527154    -1.12800
C1129       C  0.80423565  0.61072309  0.23936564     1.05400
O1130       O  0.69206538  0.59721048  0.33534297    -0.79400
O1131       O  0.74063902  0.66570369  0.26986757    -0.67000
Ni1132     Ni  0.62664824  0.54045426  0.12550509     1.34900
C1133       C  0.74993128  0.67964692  0.22680468     0.84100
O1134       O  0.60109202  0.59583918  0.21075699    -0.79900
O1135       O  0.56999137  0.54223789  0.15017365    -0.90200
C1136       C  0.64832848  0.58662208  0.32819018     0.83700
O1137       O  0.61395920  0.49747558  0.17041263    -0.68400
O1138       O  0.80633298  0.64509343  0.25327872    -0.87700
C1139       C  0.58396888  0.48922771  0.20554910     0.84500
C1140       C  0.56691586  0.56882617  0.18047359     1.06100
H1141       H  0.68804797  0.54998219  0.25003199     0.37900
O1142       O  0.70300321  0.58150491  0.24337922    -1.10300
O1143       O  0.76234910  0.66239008  0.19190224    -0.67000
Ni1144     Ni  0.73275555  0.59647665  0.17913634     1.26300
O1145       O  0.59413990  0.52245130  0.23395731    -0.67200
O1146       O  0.79097494  0.59775103  0.19618692    -0.79500
C1147       C  0.71942719  0.58005256  0.08463192     0.83900
O1148       O  0.75592449  0.60877876  0.11233632    -0.66700
Ni1149     Ni  0.74871446  0.62285885  0.29307979     1.27400
Ni1150     Ni  0.65122593  0.58937348  0.22902837     1.26100
H1151       H  0.68125172  0.61832018  0.15141022     0.38500
O1152       O  0.55086569  0.93995232  0.46879749    -0.81500
O1153       O  0.98361847  0.53621188  0.37409353    -0.66200
O1154       O  0.56064289  0.51434445  0.44672310    -1.12800
C1155       C  0.92532836  0.94938528  0.54411583     1.05400
O1156       O  0.90893229  0.50363047  0.41383691    -0.79400
O1157       O  0.98989233  0.55975542  0.47729836    -0.67000
Ni1158     Ni  0.57630811  0.97751723  0.41527262     1.34900
C1159       C  0.53126220  0.57407574  0.49860051     0.84100
O1160       O  0.57930878  0.56543025  0.37551064    -0.79900
O1161       O  0.60185509  0.51731014  0.36227310    -0.90200
C1162       C  0.93651078  0.51886744  0.37539855     0.83700
O1163       O  0.51012122  0.93271795  0.39106339    -0.68400
O1164       O  0.93632253  0.98874662  0.53964498    -0.87700
C1165       C  0.98543711  0.94014965  0.36555838     0.84500
C1166       C  0.60839110  0.55542522  0.35822277     1.06100
H1167       H  0.94490541  0.95048071  0.43705890     0.37900
O1168       O  0.96608507  0.98034702  0.45245512    -1.07300
O1169       O  0.53696860  0.54621939  0.51957510    -0.67000
Ni1170     Ni  0.01359202  0.98354187  0.49609719     1.26300
O1171       O  0.99936750  0.97996786  0.36066011    -0.67200
O1172       O  0.96279004  0.94816559  0.54538682    -0.79500
C1173       C  0.57612874  0.96039342  0.50595473     0.83900
O1174       O  0.56529774  0.98459692  0.53048911    -0.66700
Ni1175     Ni  0.92582197  0.49885070  0.47749550     1.27400
Ni1176     Ni  0.52132155  0.52475828  0.41145313     1.26100
H1177       H  0.59168585  0.54270486  0.45816478     0.38500
C1178       C  0.60601590  0.69905287  0.47184278     0.79600
N1179       N  0.61266416  0.71564742  0.51922199    -0.78700
C1180       C  0.60327979  0.68824914  0.55680828     0.82100
N1181       N  0.58969150  0.64543445  0.54528438    -0.78600
C1182       C  0.57170205  0.62531544  0.50139411     0.82200
N1183       N  0.58138999  0.65280129  0.46387884    -0.80300
O1184       O  0.58746358  0.61273861  0.90655728    -0.81500
O1185       O  0.95085165  0.93692912  0.04607399    -0.66200
O1186       O  0.53951919  0.53636168  0.95706311    -1.12800
C1187       C  0.90112741  0.92748810  0.86606799     1.05400
O1188       O  0.98227818  0.91638329  0.99064059    -0.79400
O1189       O  0.49823206  0.92479013  0.89966534    -0.67000
Ni1190     Ni  0.56667146  0.59842299  0.97177786     1.34900
C1191       C  0.52185813  0.95687788  0.87064433     0.84100
O1192       O  0.54601442  0.52695950  0.05587159    -0.79900
O1193       O  0.55317265  0.58664123  0.03706539    -0.90200
C1194       C  0.95236221  0.90479045  0.02614330     0.83700
O1195       O  0.49787730  0.57804665  0.96381996    -0.68400
O1196       O  0.90264224  0.89815631  0.88724941    -0.87700
C1197       C  0.45961763  0.54960372  0.99136301     0.84500
C1198       C  0.57480021  0.56978987  0.04967900     1.06100
H1199       H  0.91803660  0.95289366  0.96538162     0.37900
O1200       O  0.95115090  0.96005357  0.95622827    -1.10300
O1201       O  0.51835130  0.98909327  0.87143122    -0.67000
Ni1202     Ni  0.48492877  0.50706694  0.91259347     1.26300
O1203       O  0.45913541  0.52045663  0.01764341    -0.67200
O1204       O  0.92850016  0.97101610  0.87344487    -0.79500
C1205       C  0.56576123  0.59024136  0.86823465     0.83900
O1206       O  0.51940289  0.55475631  0.86728364    -0.66700
Ni1207     Ni  0.94122307  0.90515037  0.93958161     1.27400
Ni1208     Ni  0.49627036  0.49195249  0.00606442     1.26100
H1209       H  0.56561503  0.53296883  0.94554549     0.38500
O1210       O  0.56266258  0.87873823  0.60892803    -0.81500
O1211       O  0.55297976  0.96565120  0.79095664    -0.66200
O1212       O  0.60322241  0.94377755  0.67549153    -1.12800
C1213       C  0.59413570  0.84354043  0.77003608     1.05400
O1214       O  0.57111486  0.93480102  0.84625018    -0.79400
O1215       O  0.65646785  0.96928154  0.79262917    -0.67000
Ni1216     Ni  0.57422817  0.93631925  0.61541753     1.34900
C1217       C  0.68407969  0.97283729  0.75669793     0.84100
O1218       O  0.59000379  0.50676883  0.70510444    -0.79900
O1219       O  0.58682404  0.49494552  0.62365429    -0.90200
C1220       C  0.55189565  0.95399102  0.83370858     0.83700
O1221       O  0.50489222  0.90776890  0.63217014    -0.68400
O1222       O  0.62954852  0.88314113  0.78405215    -0.87700
C1223       C  0.48430245  0.90750634  0.67197410     0.84500
C1224       C  0.59221389  0.51852793  0.66187111     1.06100
H1225       H  0.52955511  0.87517304  0.75759279     0.37900
O1226       O  0.56565534  0.90041979  0.75478761    -1.10300
O1227       O  0.66706378  0.94026272  0.72353844    -0.67000
Ni1228     Ni  0.59731472  0.89262046  0.69833321     1.26300
O1229       O  0.50671971  0.91937575  0.71215487    -0.67200
O1230       O  0.58452324  0.83823934  0.72556364    -0.79500
C1231       C  0.60564771  0.88644166  0.60063806     0.83900
O1232       O  0.62798321  0.88735956  0.63759250    -0.66700
Ni1233     Ni  0.60080401  0.91029067  0.81328672     1.27400
Ni1234     Ni  0.57707453  0.95424266  0.73181200     1.26100
H1235       H  0.63893202  0.96960356  0.67172910     0.38500
O1236       O  0.62435448  0.65032506  0.81926676    -0.81500
O1237       O  0.60784785  0.71954153  0.64148321    -0.66200
O1238       O  0.56282871  0.64403548  0.75460174    -1.12800
C1239       C  0.59757912  0.56048438  0.65898737     1.05400
O1240       O  0.54356584  0.65204356  0.61892796    -0.79400
O1241       O  0.49577442  0.57293263  0.65621807    -0.67000
Ni1242     Ni  0.58192216  0.66837561  0.81735877     1.34900
C1243       C  0.98824746  0.54656981  0.68837097     0.84100
O1244       O  0.56945471  0.72390499  0.74268114    -0.79900
O1245       O  0.53855032  0.68522097  0.81278515    -0.90200
C1246       C  0.58255419  0.69063480  0.60624704     0.83700
O1247       O  0.64126045  0.72727975  0.80121674    -0.68400
O1248       O  0.57292309  0.56441134  0.62735686    -0.87700
C1249       C  0.67364610  0.73564766  0.76756148     0.84500
C1250       C  0.54643645  0.71558730  0.78554394     1.06100
H1251       H  0.63604445  0.66278805  0.66167251     0.37900
O1252       O  0.60059476  0.64565902  0.67277020    -1.10300
O1253       O  0.52297890  0.55764574  0.71694510    -0.67000
Ni1254     Ni  0.59066558  0.61378676  0.72798940     1.26300
O1255       O  0.65853420  0.72266055  0.72425977    -0.67200
O1256       O  0.61859980  0.58724328  0.69553306    -0.79500
C1257       C  0.59509472  0.60794513  0.82353803     0.83900
O1258       O  0.58087199  0.58317102  0.78576124    -0.66700
Ni1259     Ni  0.55842687  0.60906542  0.62118549     1.27400
Ni1260     Ni  0.58662223  0.68581147  0.70348100     1.26100
H1261       H  0.52579567  0.62316183  0.75408673     0.38500
O1262       O  0.82930288  0.93914891  0.60786078    -0.81500
O1263       O  0.89869967  0.92298702  0.78690976    -0.66200
O1264       O  0.83731053  0.89349647  0.67014199    -1.12800
C1265       C  0.76853914  0.96389702  0.74169719     1.05400
O1266       O  0.82642252  0.89649948  0.82802025    -0.79400
O1267       O  0.74023089  0.87317290  0.78958693    -0.67000
Ni1268     Ni  0.87995724  0.93023316  0.61999375     1.34900
C1269       C  0.74003106  0.84196975  0.76679456     0.84100
O1270       O  0.90610332  0.88566035  0.70738560    -0.79900
O1271       O  0.93138494  0.92132237  0.63628864    -0.90200
C1272       C  0.87291543  0.91250524  0.82532190     0.83700
O1273       O  0.91308032  0.98802069  0.65169228    -0.68400
O1274       O  0.78541344  0.96559671  0.78269428    -0.87700
C1275       C  0.94141899  0.49982394  0.68668734     0.84500
C1276       C  0.93618864  0.90173918  0.67056103     1.06100
H1277       H  0.85788323  0.96833447  0.73842580     0.37900
O1278       O  0.83508769  0.93580923  0.74379133    -1.10300
O1279       O  0.75123771  0.84710597  0.72164927    -0.67000
Ni1280     Ni  0.79154748  0.90749955  0.69008779     1.26300
O1281       O  0.93276393  0.97059729  0.71598722    -0.67200
O1282       O  0.75198549  0.92994548  0.71117356    -0.79500
C1283       C  0.78759454  0.90201748  0.59601983     0.83900
O1284       O  0.75480833  0.88036295  0.63023066    -0.66700
Ni1285     Ni  0.80429976  0.92966438  0.80546453     1.27400
Ni1286     Ni  0.87038834  0.90968543  0.72820054     1.26100
H1287       H  0.81987233  0.86132273  0.66186007     0.38500
C1288       C  0.68421413  0.59875581  0.96998116     0.79600
N1289       N  0.64263921  0.59687759  0.98595297    -0.78700
C1290       C  0.62884972  0.59176975  0.03381468     0.82100
N1291       N  0.66054459  0.59454562  0.06519431    -0.78600
C1292       C  0.70232910  0.59682223  0.05031883     0.82200
N1293       N  0.71276599  0.59674940  0.00229438    -0.80300
C1294       C  0.90213984  0.78931613  0.98484432     0.79600
N1295       N  0.90624138  0.82897905  0.98660524    -0.78700
C1296       C  0.91363970  0.85356271  0.02890141     0.82100
N1297       N  0.90752051  0.83325818  0.07057791    -0.78600
C1298       C  0.90664323  0.79533684  0.07152965     0.82200
N1299       N  0.90513024  0.77382354  0.02801088    -0.80300
C1300       C  0.89922691  0.60726909  0.97810605     0.79600
N1301       N  0.90064770  0.61859119  0.02641746    -0.78700
C1302       C  0.90528085  0.59492578  0.05963632     0.82100
N1303       N  0.90473959  0.55870037  0.04382296    -0.78600
C1304       C  0.91887040  0.55665716  0.99780225     0.82200
N1305       N  0.91264937  0.57892706  0.96391635    -0.80300
O1306       O  0.82231405  0.76380200  0.83122869    -0.81500
O1307       O  0.89720652  0.65810990  0.92672377    -0.66200
O1308       O  0.84800352  0.70034449  0.83488187    -1.12800
C1309       C  0.69734208  0.60035297  0.91807402     1.05400
O1310       O  0.82674492  0.58540225  0.93423800    -0.79400
O1311       O  0.77530396  0.56969700  0.84846682    -0.67000
Ni1312     Ni  0.88431050  0.76540240  0.82795627     1.34900
C1313       C  0.76285904  0.58033953  0.81168871     0.84100
O1314       O  0.94305871  0.71550307  0.84858861    -0.79900
O1315       O  0.95015372  0.77415543  0.81623497    -0.90200
C1316       C  0.87347984  0.61781952  0.94375749     0.83700
O1317       O  0.89406826  0.78278107  0.89727771    -0.68400
O1318       O  0.70680298  0.57360687  0.89990632    -0.87700
C1319       C  0.89663764  0.76554843  0.93508020     0.84500
C1320       C  0.96766673  0.75107472  0.82185644     1.06100
H1321       H  0.80594131  0.66021032  0.93822949     0.37900
O1322       O  0.80584700  0.64717559  0.90689333    -1.10300
O1323       O  0.75767216  0.61331102  0.81369672    -0.67000
Ni1324     Ni  0.77893560  0.66623712  0.86099608     1.26300
O1325       O  0.89397923  0.72899906  0.93163164    -0.67200
O1326       O  0.71318341  0.63568464  0.89501421    -0.79500
C1327       C  0.77529669  0.73447375  0.81861338     0.83900
O1328       O  0.75550541  0.69139565  0.81742155    -0.66700
Ni1329     Ni  0.76790876  0.58198557  0.91515239     1.27400
Ni1330     Ni  0.87479704  0.68134952  0.88062648     1.26100
H1331       H  0.84781621  0.68744538  0.80342012     0.38500
N1332       N  0.73770824  0.01093874  0.75549832    -0.04100
C1333       C  0.76256978  0.05749510  0.76392725    -0.01500
C1334       C  0.80998291  0.07948087  0.73994948    -0.24400
C1335       C  0.81505612  0.04637075  0.72099534    -0.24600
C1336       C  0.76988562  0.00424969  0.73158004    -0.01600
H1337       H  0.84161322  0.61555752  0.74392295     0.12200
H1338       H  0.85054862  0.05261995  0.70762982     0.12200
N1339       N  0.51797613  0.76682720  0.79866657    -0.04100
C1340       C  0.53847124  0.74650578  0.81387958    -0.01500
C1341       C  0.57198202  0.77205382  0.85089364    -0.24400
C1342       C  0.58313623  0.81425357  0.84872472    -0.24600
C1343       C  0.55809023  0.81129317  0.80823298    -0.01600
H1344       H  0.59562512  0.76512461  0.86807793     0.12200
H1345       H  0.61777089  0.84493371  0.86336963     0.12200
N1346       N  0.72779301  0.76537647  0.77968380    -0.04100
C1347       C  0.74182200  0.75184714  0.81825631    -0.01500
C1348       C  0.74609839  0.77734864  0.85915775    -0.24400
C1349       C  0.74230078  0.81055866  0.84546731    -0.24600
C1350       C  0.73768486  0.80630386  0.79578413    -0.01600
H1351       H  0.75790206  0.77601223  0.89431627     0.12200
H1352       H  0.74629588  0.83712351  0.86910910     0.12200
loop_ 
_geom_bond_atom_site_label_1 
_geom_bond_atom_site_label_2 
_geom_bond_distance 
_geom_bond_site_symmetry_2 
_ccdc_geom_bond_type 
O1           Ni7   1.912       .  S
O1           C22   1.273       .  A
O2          Ni25   1.899       .  S
O2           C11   1.258       .  A
O3           Ni7   1.930       .  S
O3          Ni25   1.922       .  S
O3          Ni19   1.958       .  S
O3           H26   0.966       .  S
C4           O21   1.305       .  A
C4           O13   1.282       .  A
C4          C164   1.523       .  S
O5          Ni24   1.880       .  S
O5           C11   1.264       .  A
O6          Ni24   1.937       .  S
O6            C8   1.269       .  A
Ni7          O10   1.924       .  S
Ni7          O12   1.947       .  S
C8           O18   1.299       .  A
C8           C28   1.535       .  S
O9          Ni25   1.957       .  S
O9           C15   1.282       .  A
O10          C15   1.270       .  A
C11          C48   1.451       .  S
O12          C14   1.278       .  A
O13         Ni24   1.931       .  S
C14          O20   1.265       .  A
C14          C54   1.494       .  S
C15         C373   1.495       .  S
H16          O17   0.966       .  S
O17         Ni25   1.943       .  S
O17         Ni19   1.877       .  S
O17         Ni24   1.906       .  S
O18         Ni19   2.000       .  S
Ni19         O23   1.965       .  S
Ni19         O21   2.002       .  S
O20         Ni25   1.929       .  S
C22          O23   1.292       .  A
C22         N717   1.466       .  S
N27          C99   1.462       .  S
N27          C31   1.361       .  A
N27          C28   1.393       .  A
C28          C29   1.387       .  A
C29          C30   1.378       .  A
C29          H32   1.083       .  S
C30          C31   1.379       .  A
C30          H33   1.079       .  S
C31         C119   1.489       .  S
N34          C67   1.436       .  S
N34          C38   1.368       .  A
N34          C35   1.374       .  A
C35         C353   1.495   1_545  S
C35          C36   1.377       .  A
C36          C37   1.370       .  A
C36         H377   1.083       .  S
C37          C38   1.387       .  A
C37          H40   1.080       .  S
C38         C115   1.515       .  S
H39         C374   1.083       .  S
N41         C698   1.466       .  S
N41          C45   1.342       .  A
N41          C42   1.362       .  A
C42         C100   1.469       .  S
C42          C43   1.379       .  A
C43          C44   1.350       .  A
C43          H46   1.083       .  S
C44          C45   1.394       .  A
C44          H47   1.083       .  S
C45          C63   1.460       .  S
C48          N49   1.346       .  A
C48          N53   1.368       .  A
N49          C50   1.346       .  A
C50         C141   1.483       .  S
C50          N51   1.356       .  A
N51          C52   1.364       .  A
C52         C269   1.464       .  S
C52          N53   1.365       .  A
C54          N55   1.354       .  A
C54          N59   1.377       .  A
N55          C56   1.358       .  A
C56         C159   1.481       .  S
C56          N57   1.347       .  A
N57          C58   1.365       .  A
C58         C217   1.490       .  S
C58          N59   1.377       .  A
O60         Ni66   1.909       .  S
O60          C81   1.261       .  A
O61         Ni84   1.952       .  S
O61          C70   1.293       .  A
O62         Ni66   1.891       .  S
O62         Ni84   1.892       .  S
O62         Ni78   1.927       .  S
O62          H85   0.966       .  S
C63          O80   1.316       .  A
C63          O72   1.269       .  A
O64         Ni83   1.882       .  S
O64          C70   1.266       .  A
O65         Ni83   1.870       .  S
O65          C67   1.269       .  A
Ni66         O71   1.872       .  S
Ni66        O407   1.960   1_545  S
C67          O77   1.290       .  A
O68        Ni422   1.853       .  S
O68          C74   1.269       .  A
O69        Ni404   1.960       .  S
O69          C74   1.288       .  A
C70         C148   1.458       .  S
O71         C749   1.255       .  A
O72         Ni83   1.809       .  S
C73         O747   1.255       .  A
C73         O755   1.274   1_455  A
C73         C126   1.450       .  S
C74          C89   1.445       .  S
H75          O76   0.967       .  S
O76         Ni84   1.816       .  S
O76         Ni78   1.851       .  S
O76         Ni83   1.832       .  S
O77         Ni78   1.952       .  S
Ni78         O82   1.967       .  S
Ni78         O80   2.001       .  S
O79         Ni84   1.947       .  S
O79         C749   1.274       .  A
C81          O82   1.276       .  A
C81         C288   1.481       .  S
Ni84        O406   1.853   1_545  S
O86         Ni92   1.887       .  S
O86         C107   1.274       .  A
O87        Ni110   1.984       .  S
O87          C96   1.289       .  A
O88         Ni92   1.839       .  S
O88        Ni110   1.845       .  S
O88        Ni104   1.854       .  S
O88         H111   0.968       .  S
C89         O106   1.276       .  A
C89          O98   1.285       .  A
O90        Ni109   1.908       .  S
O90          C96   1.265       .  A
O91        Ni109   1.910       .  S
O91         C769   1.264       .  A
Ni92         O95   1.842       .  S
Ni92         O97   1.878       .  S
C93         O767   1.264       .  A
C93         O779   1.269   1_455  A
C93         C463   1.495       .  S
O94        Ni110   2.010       .  S
O94         C100   1.314       .  A
O95         C100   1.273       .  A
C96         C284   1.506       .  S
O97          C99   1.268       .  A
O98        Ni109   1.948       .  S
C99         O105   1.314       .  A
H101        O102   0.967       .  S
O102       Ni110   1.909       .  S
O102       Ni104   1.871       .  S
O102       Ni109   1.887       .  S
O103       Ni104   1.964       .  S
O103        C769   1.269       .  A
Ni104       O108   1.905       .  S
Ni104       O106   1.857       .  S
O105       Ni110   2.020       .  S
C107        O108   1.278       .  A
C107        C151   1.438       .  S
O112       Ni118   1.911       .  S
O112        C133   1.265       .  A
O113       Ni136   1.849       .  S
O113        C122   1.246       .  A
O114       Ni118   1.864       .  S
O114       Ni136   1.856       .  S
O114       Ni130   1.903       .  S
O114        H137   0.965       .  S
C115        O132   1.263       .  A
C115        O124   1.252       .  A
O116       Ni135   1.862       .  S
O116        C122   1.258       .  A
O117       Ni135   1.885       .  S
O117        C119   1.274       .  A
Ni118       O121   1.969       .  S
Ni118       O123   1.889   1_545  S
C119        O129   1.300       .  A
O120       Ni136   1.884       .  S
O120        C126   1.269       .  A
O121        C126   1.292       .  A
C122        C152   1.375       .  S
O123        C125   1.253       .  A
O124       Ni135   1.856       .  S
C125        O131   1.279   1_565  A
C125        C431   1.495       .  S
H127        O128   0.966       .  S
O128       Ni136   1.938       .  S
O128       Ni130   1.923       .  S
O128       Ni135   1.921       .  S
O129       Ni130   1.997       .  S
Ni130       O134   1.934       .  S
Ni130       O132   1.954       .  S
O131       Ni136   1.998       .  S
C133        O134   1.272       .  A
C133        C278   1.458       .  S
O138       Ni144   1.871       .  S
O138        C159   1.252       .  A
O139       Ni838   1.889       .  S
O139        C148   1.260       .  A
O140       Ni162   1.874       .  S
O140       Ni482   1.861   1_545  S
O140      Ni1170   1.833   1_545  S
O140        H163   0.967       .  S
C141        O158   1.250       .  A
C141        O150   1.265       .  A
O142       Ni161   1.927   1_545  S
O142        C148   1.271       .  A
O143       Ni161   1.929   1_545  S
O143        C821   1.284       .  A
Ni144       O149   1.892       .  S
Ni144       O485   1.902       .  S
Ni144       O478   1.861       .  S
C145        O155   1.308       .  A
C145        O819   1.284   1_455  A
C145        C168   1.507       .  S
O146       Ni162   1.832       .  S
O146        C152   1.267       .  A
O147       Ni482   1.902   1_545  S
O147        C152   1.284       .  A
O149        C827   1.253   1_455  A
O150       Ni499   1.876       .  S
C151        O157   1.247       .  A
C151        O825   1.253       .  A
H153        O154   0.960       .  S
O154       Ni156   1.964       .  S
O154      Ni1176   1.907       .  S
O154       Ni499   1.888       .  S
O155      Ni1170   2.005   1_545  S
Ni156       O158   1.913       .  S
Ni156      O1169   2.005       .  S
Ni156       O836   1.962       .  S
Ni156      O1154   1.833       .  S
O157      Ni1176   1.901       .  S
C159        O160   1.282       .  A
O160       Ni832   1.962       .  S
Ni161       O488   1.876       .  S
Ni161       O492   1.888       .  S
Ni162       O815   1.889   1_455  S
Ni162      O1171   1.901   1_445  S
Ni162      O1168   1.907   1_445  S
C164        N165   1.388       .  A
C164        N169   1.374       .  A
N165        C166   1.377       .  A
C166        C232   1.516       .  S
C166        N167   1.365       .  A
N167        C168   1.352       .  A
C168        N169   1.375       .  A
O170       Ni176   1.885       .  S
O170        C191   1.262       .  A
O171      Ni1208   1.988       .  S
O171        C180   1.293       .  A
O172       Ni176   1.897       .  S
O172       Ni194   1.937   1_446  S
O172       Ni188   1.909   1_455  S
O172        H195   0.965       .  S
C173        O190   1.280       .  A
C173        O182   1.277       .  A
C173        C258   1.366       .  S
O174       Ni193   1.859       .  S
O174        C180   1.243   1_556  A
O175       Ni869   1.858       .  S
O175        C177   1.252   1_655  A
Ni176       O179   1.853   1_556  S
Ni176       O181   1.914   1_455  S
C177        O187   1.245       .  A
C177        C206   1.420       .  S
O178       Ni194   1.932   1_445  S
O178        C184   1.265       .  A
O179        C184   1.253       .  A
C180        C282   1.504       .  S
O181        C183   1.282       .  A
O182       Ni193   1.880       .  S
C183        O189   1.315   1_556  A
C183        C966   1.496       .  S
C184        C276   1.482       .  S
H185        O186   0.967       .  S
O186       Ni193   1.859       .  S
O186      Ni1208   1.849   1_556  S
O186      Ni1202   1.854       .  S
O187       Ni526   1.884   1_455  S
Ni188       O192   1.901   1_655  S
Ni188       O525   1.884   1_645  S
Ni188      O1204   1.857   1_545  S
Ni188      O1200   1.854   1_545  S
O189       Ni194   2.019   1_545  S
O190      Ni1202   1.857       .  S
C191        O192   1.269       .  A
C191        C243   1.444       .  S
Ni193       O851   1.858       .  S
Ni194      O1185   1.988       .  S
Ni194      O1200   1.849   1_554  S
O196       Ni202   1.896       .  S
O196        C217   1.262       .  A
O197       Ni220   1.911       .  S
O197        C206   1.275       .  A
O198       Ni202   1.888       .  S
O198       Ni220   1.867       .  S
O198       Ni214   1.899       .  S
O198        H221   0.966       .  S
C199        O216   1.266       .  A
C199        O208   1.246       .  A
C199        C329   1.493       .  S
O200       Ni219   1.848       .  S
O200        C206   1.257       .  A
O201       Ni219   1.893       .  S
O201        C203   1.263       .  A
Ni202       O207   1.875       .  S
Ni202       O543   1.921       .  S
C203        O213   1.306       .  A
C203        N318   1.438       .  S
O204       Ni558   1.885   1_545  S
O204        C210   1.281       .  A
O205       Ni540   1.921       .  S
O205        C210   1.277   1_565  A
O207        C209   1.257   1_455  A
O208       Ni219   1.857       .  S
C209        O215   1.273   1_655  A
C209        C938   1.454       .  S
C210        C225   1.438       .  S
H211        O212   0.967       .  S
O212       Ni220   1.907       .  S
O212       Ni214   1.928       .  S
O212       Ni219   1.930       .  S
O213       Ni214   1.993       .  S
Ni214       O218   1.970       .  S
Ni214       O216   1.954       .  S
O215       Ni220   1.932       .  S
C217        O218   1.278       .  A
Ni220       O542   1.885       .  S
O222       Ni228   1.858       .  S
O222        C243   1.245       .  A
O223       Ni246   2.010       .  S
O223        C232   1.295       .  A
O224       Ni228   1.868       .  S
O224       Ni246   1.908       .  S
O224       Ni240   1.902       .  S
O224        H247   0.966       .  S
C225        O242   1.270       .  A
C225        O234   1.292       .  A
O226       Ni245   1.902       .  S
O226        C232   1.256       .  A
O227       Ni245   1.882   1_655  S
O227        C905   1.253       .  A
Ni228       O231   1.861       .  S
Ni228       O233   1.891       .  S
C229        O903   1.253       .  A
C229        O915   1.260       .  A
C229        C261   1.453   1_545  S
O230       Ni246   2.029       .  S
O230        C236   1.318       .  A
O231        C236   1.263       .  A
O233        C235   1.270       .  A
O234       Ni245   1.966       .  S
C235        O241   1.278       .  A
C235        N332   1.459       .  S
C236        C326   1.477       .  S
H237        O238   0.967       .  S
O238       Ni246   1.921       .  S
O238       Ni240   1.871       .  S
O238       Ni245   1.876       .  S
O239       Ni240   1.932       .  S
O239        C905   1.260   1_455  A
Ni240       O244   1.907       .  S
Ni240       O242   1.855       .  S
O241       Ni246   1.978       .  S
C243        O244   1.254       .  A
O248       Ni254   1.914       .  S
O248        C269   1.256       .  A
O249       Ni272   1.812       .  S
O249        C258   1.244       .  A
O250       Ni254   1.850       .  S
O250       Ni272   1.852       .  S
O250       Ni266   1.892       .  S
O250        H273   0.967       .  S
C251        O268   1.292       .  A
C251        O260   1.274       .  A
C251        C322   1.488       .  S
O252       Ni271   1.886       .  S
O252        C258   1.254       .  A
O253       Ni271   1.906       .  S
O253        C255   1.266       .  A
Ni254       O257   1.968       .  S
Ni254       O259   1.882       .  S
C255        O265   1.277       .  A
C255        C336   1.529       .  S
O256       Ni272   1.883       .  S
O256        C262   1.271       .  A
O257        C262   1.291       .  A
O259        C599   1.248       .  A
O260       Ni271   1.898       .  S
C261        O597   1.248       .  A
C261        O605   1.260       .  A
C262        C885   1.454       .  S
H263        O264   0.964       .  S
O264       Ni272   1.905       .  S
O264       Ni266   1.898       .  S
O264       Ni271   1.888       .  S
O265       Ni266   1.990       .  S
Ni266       O270   1.946       .  S
Ni266       O268   1.949       .  S
O267       Ni272   1.941       .  S
O267        C599   1.260       .  A
C269        O270   1.275       .  A
C274        C295   1.474       .  S
C274        N275   1.364       .  A
C274        N279   1.363   1_556  A
N275        C276   1.364   1_556  A
C276        N277   1.342       .  A
N277        C278   1.355       .  A
C278        N279   1.357       .  A
C280        C305   1.547       .  S
C280        N281   1.368       .  A
C280        N285   1.386   1_556  A
N281        C282   1.375   1_556  A
C282        N283   1.349       .  A
N283        C284   1.367       .  A
C284        N285   1.388       .  A
C286        C302   1.510       .  S
C286        N287   1.375   1_556  A
C286        N291   1.375       .  A
N287        C288   1.371       .  A
C288        N289   1.358       .  A
N289        C290   1.346   1_554  A
C290        C859   1.496       .  S
C290        N291   1.375       .  A
O292       Ni298   1.983       .  S
O292        C313   1.290       .  A
O293       Ni316   1.965       .  S
O293        C302   1.286       .  A
O294       Ni298   1.929       .  S
O294       Ni316   1.951       .  S
O294       Ni310   1.922       .  S
O294        H317   0.966       .  S
C295        O312   1.263       .  A
C295        O304   1.260       .  A
O296       Ni315   1.947       .  S
O296        C302   1.278       .  A
O297       Ni315   1.915       .  S
O297        C299   1.280       .  A
Ni298       O301   1.980       .  S
Ni298       O303   1.973       .  S
C299        O309   1.308       .  A
C299        C657   1.522       .  S
O300       Ni316   1.966       .  S
O300        C306   1.292       .  A
O301        C306   1.288       .  A
O303        C305   1.285       .  A
O304       Ni315   1.894       .  S
C305        O311   1.281       .  A
C306       N1001   1.491       .  S
H307        O308   0.966       .  S
O308       Ni316   1.921       .  S
O308       Ni310   1.958       .  S
O308       Ni315   1.932       .  S
O309       Ni310   2.033       .  S
Ni310       O314   1.990       .  S
Ni310       O312   1.936       .  S
O311       Ni316   1.981       .  S
C313        O314   1.290       .  A
C313        C333   1.556       .  S
N318        C322   1.345       .  A
N318        C319   1.384       .  A
C319        C637   1.522       .  S
C319        C320   1.389       .  A
C320        C321   1.385       .  A
C320        H661   1.083       .  S
C321        C322   1.378       .  A
C321        H324   1.082       .  S
H323        C658   1.083       .  S
N325        C982   1.491   1_455  S
N325        C329   1.361       .  A
N325        C326   1.355       .  A
C326        C327   1.382       .  A
C327        C328   1.356       .  A
C327        H330   1.083       .  S
C328        C329   1.387       .  A
C328        H331   1.083       .  S
N332        C336   1.376       .  A
N332        C333   1.409       .  A
C333        C334   1.383       .  A
C334        C335   1.365       .  A
C334        H337   1.083       .  S
C335        C336   1.385       .  A
C335        H338   1.082       .  S
O339       Ni345   1.912       .  S
O339        C360   1.273       .  A
O340       Ni363   1.899       .  S
O340        C349   1.258       .  A
O341       Ni345   1.930       .  S
O341       Ni363   1.922       .  S
O341       Ni357   1.958       .  S
O341        H364   0.966       .  S
C342        O359   1.305       .  A
C342        O351   1.282       .  A
C342        C502   1.523       .  S
O343       Ni362   1.880       .  S
O343        C349   1.264       .  A
O344       Ni362   1.937       .  S
O344        C346   1.269       .  A
Ni345       O348   1.924       .  S
Ni345       O350   1.947       .  S
C346        O356   1.299       .  A
C346        C366   1.535       .  S
O347       Ni363   1.957       .  S
O347        C353   1.282       .  A
O348        C353   1.270       .  A
C349        C386   1.451       .  S
O350        C352   1.278       .  A
O351       Ni362   1.931       .  S
C352        O358   1.265       .  A
C352        C392   1.494       .  S
H354        O355   0.966       .  S
O355       Ni363   1.943       .  S
O355       Ni357   1.877       .  S
O355       Ni362   1.906       .  S
O356       Ni357   2.000       .  S
Ni357       O361   1.965       .  S
Ni357       O359   2.002       .  S
O358       Ni363   1.929       .  S
C360        O361   1.292       .  A
C360       N1055   1.466       .  S
N365        C437   1.462       .  S
N365        C369   1.361       .  A
N365        C366   1.393       .  A
C366        C367   1.387       .  A
C367        C368   1.378       .  A
C367        H370   1.083       .  S
C368        C369   1.379       .  A
C368        H371   1.079       .  S
C369        C457   1.489       .  S
N372        C405   1.436       .  S
N372        C376   1.368       .  A
N372        C373   1.374       .  A
C373        C374   1.377       .  A
C374        C375   1.370       .  A
C375        C376   1.387       .  A
C375        H378   1.080       .  S
C376        C453   1.515       .  S
N379       C1036   1.466       .  S
N379        C383   1.342       .  A
N379        C380   1.362       .  A
C380        C438   1.469       .  S
C380        C381   1.379       .  A
C381        C382   1.350       .  A
C381        H384   1.083       .  S
C382        C383   1.394       .  A
C382        H385   1.083       .  S
C383        C401   1.460       .  S
C386        N387   1.346       .  A
C386        N391   1.368       .  A
N387        C388   1.346       .  A
C388        C479   1.483       .  S
C388        N389   1.356       .  A
N389        C390   1.364       .  A
C390        C607   1.464       .  S
C390        N391   1.365       .  A
C392        N393   1.354       .  A
C392        N397   1.377       .  A
N393        C394   1.358       .  A
C394        C497   1.481       .  S
C394        N395   1.347       .  A
N395        C396   1.365       .  A
C396        C555   1.490       .  S
C396        N397   1.377       .  A
O398       Ni404   1.909       .  S
O398        C419   1.261       .  A
O399       Ni422   1.952       .  S
O399        C408   1.293       .  A
O400       Ni404   1.891       .  S
O400       Ni422   1.892       .  S
O400       Ni416   1.927       .  S
O400        H423   0.966       .  S
C401        O418   1.316       .  A
C401        O410   1.269       .  A
O402       Ni421   1.882       .  S
O402        C408   1.266       .  A
O403       Ni421   1.870       .  S
O403        C405   1.269       .  A
Ni404       O409   1.872       .  S
C405        O415   1.290       .  A
O406        C412   1.269       .  A
O407        C412   1.288       .  A
C408        C486   1.458       .  S
O409       C1087   1.255       .  A
O410       Ni421   1.809       .  S
C411       O1085   1.255       .  A
C411       O1093   1.274   1_455  A
C411        C464   1.450       .  S
C412        C427   1.445       .  S
H413        O414   0.967       .  S
O414       Ni422   1.816       .  S
O414       Ni416   1.851       .  S
O414       Ni421   1.832       .  S
O415       Ni416   1.952       .  S
Ni416       O420   1.967       .  S
Ni416       O418   2.001       .  S
O417       Ni422   1.947       .  S
O417       C1087   1.274       .  A
C419        O420   1.276       .  A
C419        C626   1.481       .  S
O424       Ni430   1.887       .  S
O424        C445   1.274       .  A
O425       Ni448   1.984       .  S
O425        C434   1.289       .  A
O426       Ni430   1.839       .  S
O426       Ni448   1.845       .  S
O426       Ni442   1.854       .  S
O426        H449   0.968       .  S
C427        O444   1.276       .  A
C427        O436   1.285       .  A
O428       Ni447   1.908       .  S
O428        C434   1.265       .  A
O429       Ni447   1.910       .  S
O429       C1107   1.264       .  A
Ni430       O433   1.842       .  S
Ni430       O435   1.878       .  S
C431       O1105   1.264       .  A
C431       O1117   1.269   1_455  A
O432       Ni448   2.010       .  S
O432        C438   1.314       .  A
O433        C438   1.273       .  A
C434        C622   1.506       .  S
O435        C437   1.268       .  A
O436       Ni447   1.948       .  S
C437        O443   1.314       .  A
H439        O440   0.967       .  S
O440       Ni448   1.909       .  S
O440       Ni442   1.871       .  S
O440       Ni447   1.887       .  S
O441       Ni442   1.964       .  S
O441       C1107   1.269       .  A
Ni442       O446   1.905       .  S
Ni442       O444   1.857       .  S
O443       Ni448   2.020       .  S
C445        O446   1.278       .  A
C445        C489   1.438       .  S
O450       Ni456   1.911       .  S
O450        C471   1.265       .  A
O451       Ni474   1.849       .  S
O451        C460   1.246       .  A
O452       Ni456   1.864       .  S
O452       Ni474   1.856       .  S
O452       Ni468   1.903       .  S
O452        H475   0.965       .  S
C453        O470   1.263       .  A
C453        O462   1.252       .  A
O454       Ni473   1.862       .  S
O454        C460   1.258       .  A
O455       Ni473   1.885       .  S
O455        C457   1.274       .  A
Ni456       O459   1.969       .  S
Ni456       O461   1.889       .  S
C457        O467   1.300       .  A
O458       Ni474   1.884       .  S
O458        C464   1.269       .  A
O459        C464   1.292       .  A
C460        C490   1.375       .  S
O461        C463   1.253       .  A
O462       Ni473   1.856       .  S
C463        O469   1.279       .  A
H465        O466   0.966       .  S
O466       Ni474   1.938       .  S
O466       Ni468   1.923       .  S
O466       Ni473   1.921       .  S
O467       Ni468   1.997       .  S
Ni468       O472   1.934       .  S
Ni468       O470   1.954       .  S
O469       Ni474   1.998       .  S
C471        O472   1.272       .  A
C471        C616   1.458       .  S
O476       Ni482   1.871       .  S
O476        C497   1.252       .  A
O477      Ni1176   1.889       .  S
O477        C486   1.260       .  A
O478       Ni500   1.874       .  S
O478       Ni832   1.833       .  S
O478        H501   0.967       .  S
C479        O496   1.250       .  A
C479        O488   1.265       .  A
O480       Ni499   1.927       .  S
O480        C486   1.271       .  A
O481       Ni499   1.929       .  S
O481       C1159   1.284       .  A
Ni482       O487   1.892       .  S
C483       O1157   1.284   1_455  A
C483        O493   1.308       .  A
C483        C506   1.507       .  S
O484       Ni500   1.832       .  S
O484        C490   1.267       .  A
O485        C490   1.284       .  A
O487       C1165   1.253   1_455  A
C489       O1163   1.253       .  A
C489        O495   1.247       .  A
H491        O492   0.960       .  S
O492       Ni838   1.907   1_565  S
O492       Ni494   1.964       .  S
O493       Ni832   2.005       .  S
Ni494       O831   2.005   1_565  S
Ni494      O1174   1.962       .  S
Ni494       O496   1.913       .  S
Ni494       O816   1.833   1_565  S
O495       Ni838   1.901   1_565  S
C497        O498   1.282       .  A
O498      Ni1170   1.962       .  S
Ni500      O1153   1.889   1_455  S
Ni500       O833   1.901   1_455  S
Ni500       O830   1.907   1_455  S
C502        N503   1.388       .  A
C502        N507   1.374       .  A
N503        C504   1.377       .  A
C504        C570   1.516       .  S
C504        N505   1.365       .  A
N505        C506   1.352       .  A
C506        N507   1.375       .  A
O508       Ni514   1.885       .  S
O508        C529   1.262       .  A
O509       Ni870   1.988       .  S
O509        C518   1.293       .  A
O510       Ni514   1.897       .  S
O510       Ni532   1.937   1_456  S
O510       Ni526   1.909   1_455  S
O510        H533   0.965       .  S
C511        O528   1.280       .  A
C511        O520   1.277       .  A
C511        C596   1.366       .  S
O512       Ni531   1.859       .  S
O512        C518   1.243   1_556  A
O513      Ni1207   1.858       .  S
O513        C515   1.252   1_655  A
Ni514       O517   1.853   1_556  S
Ni514       O519   1.914   1_455  S
C515        O525   1.245       .  A
C515        C544   1.420       .  S
O516       Ni532   1.932   1_455  S
O516        C522   1.265       .  A
O517        C522   1.253       .  A
C518        C620   1.504       .  S
O519        C521   1.282       .  A
O520       Ni531   1.880       .  S
C521        O527   1.315   1_556  A
C521       C1304   1.496       .  S
C522        C614   1.482       .  S
H523        O524   0.967       .  S
O524       Ni870   1.849   1_556  S
O524       Ni864   1.854   1_565  S
O524       Ni531   1.859       .  S
Ni526       O530   1.901   1_655  S
Ni526       O866   1.857       .  S
Ni526       O862   1.854       .  S
O527       Ni532   2.019       .  S
O528       Ni864   1.857   1_565  S
C529        O530   1.269       .  A
C529        C581   1.444       .  S
Ni531      O1189   1.858       .  S
Ni532       O847   1.988       .  S
Ni532       O862   1.849   1_554  S
O534       Ni540   1.896       .  S
O534        C555   1.262       .  A
O535       Ni558   1.911       .  S
O535        C544   1.275       .  A
O536       Ni540   1.888       .  S
O536       Ni558   1.867       .  S
O536       Ni552   1.899       .  S
O536        H559   0.966       .  S
C537        O554   1.266       .  A
C537        O546   1.246       .  A
C537        C667   1.493       .  S
O538       Ni557   1.848       .  S
O538        C544   1.257       .  A
O539       Ni557   1.893       .  S
O539        C541   1.263       .  A
Ni540       O545   1.875       .  S
C541        O551   1.306       .  A
C541        N656   1.438   1_565  S
O542        C548   1.281       .  A
O543        C548   1.277       .  A
O545        C547   1.257   1_455  A
O546       Ni557   1.857       .  S
C547        O553   1.273   1_655  A
C547       C1276   1.454       .  S
C548        C563   1.438       .  S
H549        O550   0.967       .  S
O550       Ni558   1.907       .  S
O550       Ni552   1.928       .  S
O550       Ni557   1.930       .  S
O551       Ni552   1.993       .  S
Ni552       O556   1.970       .  S
Ni552       O554   1.954       .  S
O553       Ni558   1.932       .  S
C555        O556   1.278       .  A
O560       Ni566   1.858       .  S
O560        C581   1.245       .  A
O561       Ni584   2.010       .  S
O561        C570   1.295       .  A
O562       Ni566   1.868       .  S
O562       Ni584   1.908       .  S
O562       Ni578   1.902       .  S
O562        H585   0.966       .  S
C563        O580   1.270       .  A
C563        O572   1.292       .  A
O564       Ni583   1.902       .  S
O564        C570   1.256       .  A
O565       Ni583   1.882   1_655  S
O565       C1243   1.253       .  A
Ni566       O569   1.861       .  S
Ni566       O571   1.891       .  S
C567       O1241   1.253       .  A
C567       O1253   1.260       .  A
C567        C599   1.453       .  S
O568       Ni584   2.029       .  S
O568        C574   1.318       .  A
O569        C574   1.263       .  A
O571        C573   1.270       .  A
O572       Ni583   1.966       .  S
C573        O579   1.278       .  A
C573        N670   1.459       .  S
C574        C664   1.477       .  S
H575        O576   0.967       .  S
O576       Ni584   1.921       .  S
O576       Ni578   1.871       .  S
O576       Ni583   1.876       .  S
O577       Ni578   1.932       .  S
O577       C1243   1.260   1_455  A
Ni578       O582   1.907       .  S
Ni578       O580   1.855       .  S
O579       Ni584   1.978       .  S
C581        O582   1.254       .  A
O586       Ni592   1.914       .  S
O586        C607   1.256       .  A
O587       Ni610   1.812       .  S
O587        C596   1.244       .  A
O588       Ni592   1.850       .  S
O588       Ni610   1.852       .  S
O588       Ni604   1.892       .  S
O588        H611   0.967       .  S
C589        O606   1.292       .  A
C589        O598   1.274       .  A
C589        C660   1.488   1_565  S
O590       Ni609   1.886       .  S
O590        C596   1.254       .  A
O591       Ni609   1.906       .  S
O591        C593   1.266       .  A
Ni592       O595   1.968       .  S
Ni592       O597   1.882       .  S
C593        O603   1.277       .  A
C593        C674   1.529       .  S
O594       Ni610   1.883       .  S
O594        C600   1.271       .  A
O595        C600   1.291       .  A
O598       Ni609   1.898       .  S
C600       C1223   1.454       .  S
H601        O602   0.964       .  S
O602       Ni610   1.905       .  S
O602       Ni604   1.898       .  S
O602       Ni609   1.888       .  S
O603       Ni604   1.990       .  S
Ni604       O608   1.946       .  S
Ni604       O606   1.949       .  S
O605       Ni610   1.941       .  S
C607        O608   1.275       .  A
C612        C633   1.474       .  S
C612        N613   1.364       .  A
C612        N617   1.363   1_556  A
N613        C614   1.364   1_556  A
C614        N615   1.342       .  A
N615        C616   1.355       .  A
C616        N617   1.357       .  A
C618        C643   1.547       .  S
C618        N619   1.368       .  A
C618        N623   1.386   1_556  A
N619        C620   1.375   1_556  A
C620        N621   1.349       .  A
N621        C622   1.367       .  A
C622        N623   1.388       .  A
C624        C640   1.510       .  S
C624        N625   1.375   1_556  A
C624        N629   1.375       .  A
N625        C626   1.371       .  A
C626        N627   1.358       .  A
N627        C628   1.346   1_554  A
C628       C1197   1.496       .  S
C628        N629   1.375       .  A
O630       Ni636   1.983       .  S
O630        C651   1.290       .  A
O631       Ni654   1.965       .  S
O631        C640   1.286       .  A
O632       Ni636   1.929       .  S
O632       Ni654   1.951       .  S
O632       Ni648   1.922       .  S
O632        H655   0.966       .  S
C633        O650   1.263       .  A
C633        O642   1.260       .  A
O634       Ni653   1.947       .  S
O634        C640   1.278       .  A
O635       Ni653   1.915       .  S
O635        C637   1.280       .  A
Ni636       O639   1.980       .  S
Ni636       O641   1.973       .  S
C637        O647   1.308       .  A
O638       Ni654   1.966       .  S
O638        C644   1.292       .  A
O639        C644   1.288       .  A
O641        C643   1.285       .  A
O642       Ni653   1.894       .  S
C643        O649   1.281       .  A
C644       N1339   1.491       .  S
H645        O646   0.966       .  S
O646       Ni654   1.921       .  S
O646       Ni648   1.958       .  S
O646       Ni653   1.932       .  S
O647       Ni648   2.033       .  S
Ni648       O652   1.990       .  S
Ni648       O650   1.936       .  S
O649       Ni654   1.981       .  S
C651        O652   1.290       .  A
C651        C671   1.556       .  S
N656        C660   1.345       .  A
N656        C657   1.384       .  A
C657        C658   1.389       .  A
C658        C659   1.385       .  A
C659        C660   1.378       .  A
C659        H662   1.082       .  S
N663       C1320   1.491   1_455  S
N663        C667   1.361       .  A
N663        C664   1.355       .  A
C664        C665   1.382       .  A
C665        C666   1.356       .  A
C665        H668   1.083       .  S
C666        C667   1.387       .  A
C666        H669   1.083       .  S
N670        C674   1.376       .  A
N670        C671   1.409       .  A
C671        C672   1.383       .  A
C672        C673   1.365       .  A
C672        H675   1.083       .  S
C673        C674   1.385       .  A
C673        H676   1.082       .  S
O677       Ni683   1.912       .  S
O677        C698   1.273       .  A
O678       Ni701   1.899       .  S
O678        C687   1.258       .  A
O679       Ni683   1.930       .  S
O679       Ni701   1.922       .  S
O679       Ni695   1.958       .  S
O679        H702   0.966       .  S
C680        O697   1.305       .  A
C680        O689   1.282       .  A
C680        C840   1.523       .  S
O681       Ni700   1.880       .  S
O681        C687   1.264       .  A
O682       Ni700   1.937       .  S
O682        C684   1.269       .  A
Ni683       O686   1.924       .  S
Ni683       O688   1.947       .  S
C684        O694   1.299       .  A
C684        C704   1.535       .  S
O685       Ni701   1.957       .  S
O685        C691   1.282       .  A
O686        C691   1.270       .  A
C687        C724   1.451       .  S
O688        C690   1.278       .  A
O689       Ni700   1.931       .  S
C690        O696   1.265       .  A
C690        C730   1.494       .  S
C691       C1049   1.495       .  S
H692        O693   0.966       .  S
O693       Ni701   1.943       .  S
O693       Ni695   1.877       .  S
O693       Ni700   1.906       .  S
O694       Ni695   2.000       .  S
Ni695       O699   1.965       .  S
Ni695       O697   2.002       .  S
O696       Ni701   1.929       .  S
C698        O699   1.292       .  A
N703        C775   1.462       .  S
N703        C707   1.361       .  A
N703        C704   1.393       .  A
C704        C705   1.387       .  A
C705        C706   1.378       .  A
C705        H708   1.083       .  S
C706        C707   1.379       .  A
C706        H709   1.079       .  S
C707        C795   1.489       .  S
N710        C743   1.436       .  S
N710        C714   1.368       .  A
N710        C711   1.374       .  A
C711       C1029   1.495   1_545  S
C711        C712   1.377       .  A
C712        C713   1.370       .  A
C712       H1053   1.083       .  S
C713        C714   1.387       .  A
C713        H716   1.080       .  S
C714        C791   1.515       .  S
H715       C1050   1.083       .  S
N717        C721   1.342   1_455  A
N717        C718   1.362   1_455  A
C718        C776   1.469       .  S
C718        C719   1.379       .  A
C719        C720   1.350       .  A
C719        H722   1.083       .  S
C720        C721   1.394       .  A
C720        H723   1.083       .  S
C721        C739   1.460       .  S
C724        N725   1.346       .  A
C724        N729   1.368       .  A
N725        C726   1.346       .  A
C726        C817   1.483       .  S
C726        N727   1.356       .  A
N727        C728   1.364       .  A
C728        C945   1.464       .  S
C728        N729   1.365       .  A
C730        N731   1.354       .  A
C730        N735   1.377       .  A
N731        C732   1.358       .  A
C732        C835   1.481       .  S
C732        N733   1.347       .  A
N733        C734   1.365       .  A
C734        C893   1.490       .  S
C734        N735   1.377       .  A
O736       Ni742   1.909       .  S
O736        C757   1.261       .  A
O737       Ni760   1.952       .  S
O737        C746   1.293       .  A
O738       Ni742   1.891       .  S
O738       Ni760   1.892       .  S
O738       Ni754   1.927       .  S
O738        H761   0.966       .  S
C739        O756   1.316       .  A
C739        O748   1.269       .  A
O740       Ni759   1.882       .  S
O740        C746   1.266       .  A
O741       Ni759   1.870       .  S
O741        C743   1.269       .  A
Ni742      O1083   1.960   1_545  S
Ni742       O747   1.872   1_655  S
C743        O753   1.290       .  A
O744      Ni1098   1.853       .  S
O744        C750   1.269       .  A
O745      Ni1080   1.960       .  S
O745        C750   1.288       .  A
C746        C824   1.458       .  S
O748       Ni759   1.809       .  S
C749        C802   1.450       .  S
C750        C765   1.445       .  S
H751        O752   0.967       .  S
O752       Ni760   1.816       .  S
O752       Ni754   1.851       .  S
O752       Ni759   1.832       .  S
O753       Ni754   1.952       .  S
Ni754       O758   1.967       .  S
Ni754       O756   2.001       .  S
O755       Ni760   1.947       .  S
C757        O758   1.276       .  A
C757        C964   1.481       .  S
Ni760      O1082   1.853   1_545  S
O762       Ni768   1.887       .  S
O762        C783   1.274       .  A
O763       Ni786   1.984       .  S
O763        C772   1.289       .  A
O764       Ni768   1.839       .  S
O764       Ni786   1.845       .  S
O764       Ni780   1.854       .  S
O764        H787   0.968       .  S
C765        O782   1.276       .  A
C765        O774   1.285       .  A
O766       Ni785   1.908       .  S
O766        C772   1.265       .  A
O767       Ni785   1.910   1_455  S
Ni768       O771   1.842       .  S
Ni768       O773   1.878       .  S
C769       C1139   1.495       .  S
O770       Ni786   2.010       .  S
O770        C776   1.314       .  A
O771        C776   1.273       .  A
C772        C960   1.506       .  S
O773        C775   1.268       .  A
O774       Ni785   1.948       .  S
C775        O781   1.314       .  A
H777        O778   0.967       .  S
O778       Ni786   1.909       .  S
O778       Ni780   1.871       .  S
O778       Ni785   1.887       .  S
O779       Ni780   1.964       .  S
Ni780       O784   1.905       .  S
Ni780       O782   1.857       .  S
O781       Ni786   2.020       .  S
C783        O784   1.278       .  A
C783        C827   1.438       .  S
O788       Ni794   1.911       .  S
O788        C809   1.265       .  A
O789       Ni812   1.849       .  S
O789        C798   1.246       .  A
O790       Ni794   1.864       .  S
O790       Ni812   1.856       .  S
O790       Ni806   1.903       .  S
O790        H813   0.965       .  S
C791        O808   1.263       .  A
C791        O800   1.252       .  A
O792       Ni811   1.862       .  S
O792        C798   1.258       .  A
O793       Ni811   1.885       .  S
O793        C795   1.274       .  A
Ni794       O797   1.969       .  S
Ni794       O799   1.889   1_545  S
C795        O805   1.300       .  A
O796       Ni812   1.884       .  S
O796        C802   1.269       .  A
O797        C802   1.292       .  A
C798        C828   1.375       .  S
O799        C801   1.253       .  A
O800       Ni811   1.856       .  S
C801        O807   1.279   1_565  A
C801       C1107   1.495       .  S
H803        O804   0.966       .  S
O804       Ni812   1.938       .  S
O804       Ni806   1.923       .  S
O804       Ni811   1.921       .  S
O805       Ni806   1.997       .  S
Ni806       O810   1.934       .  S
Ni806       O808   1.954       .  S
O807       Ni812   1.998       .  S
C809        O810   1.272       .  A
C809        C954   1.458       .  S
O814       Ni820   1.871       .  S
O814        C835   1.252       .  A
O815        C824   1.260       .  A
O816      Ni1158   1.861   1_545  S
O816       Ni838   1.874       .  S
O816        H839   0.967       .  S
C817        O834   1.250       .  A
C817        O826   1.265       .  A
O818       Ni837   1.927   1_545  S
O818        C824   1.271       .  A
O819       Ni837   1.929   1_545  S
Ni820      O1161   1.902       .  S
Ni820       O825   1.892       .  S
Ni820      O1154   1.861       .  S
C821        O831   1.308       .  A
C821        C844   1.507       .  S
O822       Ni838   1.832       .  S
O822        C828   1.267       .  A
O823      Ni1158   1.902   1_545  S
O823        C828   1.284       .  A
O826      Ni1175   1.876       .  S
C827        O833   1.247       .  A
H829        O830   0.960       .  S
O830       Ni832   1.964   1_655  S
O830      Ni1175   1.888       .  S
Ni832       O834   1.913   1_455  S
C835        O836   1.282       .  A
Ni837      O1164   1.876       .  S
Ni837      O1168   1.888       .  S
C840        N841   1.388       .  A
C840        N845   1.374       .  A
N841        C842   1.377       .  A
C842        C908   1.516       .  S
C842        N843   1.365       .  A
N843        C844   1.352       .  A
C844        N845   1.375       .  A
O846       Ni852   1.885       .  S
O846        C867   1.262       .  A
O847        C856   1.293       .  A
O848       Ni852   1.897       .  S
O848       Ni870   1.937   1_546  S
O848       Ni864   1.909       .  S
O848        H871   0.965       .  S
C849        O866   1.280       .  A
C849        O858   1.277       .  A
C849        C934   1.366       .  S
O850       Ni869   1.859       .  S
O850        C856   1.243   1_556  A
O851        C853   1.252       .  A
Ni852       O855   1.853   1_556  S
Ni852       O857   1.914       .  S
C853        O863   1.245       .  A
C853        C882   1.420       .  S
O854       Ni870   1.932   1_545  S
O854        C860   1.265       .  A
O855        C860   1.253       .  A
C856        C958   1.504       .  S
O857        C859   1.282       .  A
O858       Ni869   1.880       .  S
C859        O865   1.315   1_556  A
C860        C952   1.482       .  S
H861        O862   0.967       .  S
O862       Ni869   1.859       .  S
O863      Ni1202   1.884       .  S
Ni864      O1201   1.884   1_545  S
Ni864       O868   1.901       .  S
O865       Ni870   2.019   1_545  S
C867        O868   1.269       .  A
C867        C919   1.444       .  S
O872       Ni878   1.896       .  S
O872        C893   1.262       .  A
O873       Ni896   1.911       .  S
O873        C882   1.275       .  A
O874       Ni878   1.888       .  S
O874       Ni896   1.867       .  S
O874       Ni890   1.899       .  S
O874        H897   0.966       .  S
C875        O892   1.266       .  A
C875        O884   1.246       .  A
C875       C1005   1.493       .  S
O876       Ni895   1.848       .  S
O876        C882   1.257       .  A
O877       Ni895   1.893       .  S
O877        C879   1.263       .  A
Ni878      O1219   1.921       .  S
Ni878       O883   1.875       .  S
C879        O889   1.306       .  A
C879        N994   1.438       .  S
O880      Ni1234   1.885   1_545  S
O880        C886   1.281       .  A
O881      Ni1216   1.921       .  S
O881        C886   1.277   1_565  A
O883        C885   1.257       .  A
O884       Ni895   1.857       .  S
C885        O891   1.273       .  A
C886        C901   1.438       .  S
H887        O888   0.967       .  S
O888       Ni896   1.907       .  S
O888       Ni890   1.928       .  S
O888       Ni895   1.930       .  S
O889       Ni890   1.993       .  S
Ni890       O894   1.970       .  S
Ni890       O892   1.954       .  S
O891       Ni896   1.932       .  S
C893        O894   1.278       .  A
Ni896      O1218   1.885       .  S
O898       Ni904   1.858       .  S
O898        C919   1.245       .  A
O899       Ni922   2.010       .  S
O899        C908   1.295       .  A
O900       Ni904   1.868       .  S
O900       Ni922   1.908       .  S
O900       Ni916   1.902       .  S
O900        H923   0.966       .  S
C901        O918   1.270       .  A
C901        O910   1.292       .  A
O902       Ni921   1.902       .  S
O902        C908   1.256       .  A
O903       Ni921   1.882       .  S
Ni904       O907   1.861       .  S
Ni904       O909   1.891       .  S
C905        C937   1.453   1_545  S
O906       Ni922   2.029       .  S
O906        C912   1.318       .  A
O907        C912   1.263       .  A
O909        C911   1.270       .  A
O910       Ni921   1.966       .  S
C911        O917   1.278       .  A
C911       N1008   1.459       .  S
C912       C1002   1.477       .  S
H913        O914   0.967       .  S
O914       Ni922   1.921       .  S
O914       Ni916   1.871       .  S
O914       Ni921   1.876       .  S
O915       Ni916   1.932       .  S
Ni916       O920   1.907       .  S
Ni916       O918   1.855       .  S
O917       Ni922   1.978       .  S
C919        O920   1.254       .  A
O924       Ni930   1.914       .  S
O924        C945   1.256       .  A
O925       Ni948   1.812       .  S
O925        C934   1.244       .  A
O926       Ni930   1.850       .  S
O926       Ni948   1.852       .  S
O926       Ni942   1.892       .  S
O926        H949   0.967       .  S
C927        O944   1.292       .  A
C927        O936   1.274       .  A
C927        C998   1.488       .  S
O928       Ni947   1.886       .  S
O928        C934   1.254       .  A
O929       Ni947   1.906       .  S
O929        C931   1.266       .  A
Ni930       O933   1.968       .  S
Ni930       O935   1.882       .  S
C931        O941   1.277       .  A
C931       C1012   1.529       .  S
O932       Ni948   1.883       .  S
O932        C938   1.271       .  A
O933        C938   1.291       .  A
O935       C1275   1.248       .  A
O936       Ni947   1.898       .  S
C937       O1273   1.248       .  A
C937       O1281   1.260       .  A
H939        O940   0.964       .  S
O940       Ni948   1.905       .  S
O940       Ni942   1.898       .  S
O940       Ni947   1.888       .  S
O941       Ni942   1.990       .  S
Ni942       O946   1.946       .  S
Ni942       O944   1.949       .  S
O943       Ni948   1.941       .  S
O943       C1275   1.260       .  A
C945        O946   1.275       .  A
C950        C971   1.474       .  S
C950        N951   1.364       .  A
C950        N955   1.363   1_556  A
N951        C952   1.364   1_556  A
C952        N953   1.342       .  A
N953        C954   1.355       .  A
C954        N955   1.357       .  A
C956        C981   1.547       .  S
C956        N957   1.368       .  A
C956        N961   1.386   1_556  A
N957        C958   1.375   1_556  A
C958        N959   1.349       .  A
N959        C960   1.367       .  A
C960        N961   1.388       .  A
C962        C978   1.510       .  S
C962        N963   1.375   1_556  A
C962        N967   1.375       .  A
N963        C964   1.371       .  A
C964        N965   1.358       .  A
N965        C966   1.346   1_554  A
C966        N967   1.375       .  A
O968       Ni974   1.983       .  S
O968        C989   1.290       .  A
O969       Ni992   1.965       .  S
O969        C978   1.286       .  A
O970       Ni974   1.929       .  S
O970       Ni992   1.951       .  S
O970       Ni986   1.922       .  S
O970        H993   0.966       .  S
C971        O988   1.263       .  A
C971        O980   1.260       .  A
O972       Ni991   1.947       .  S
O972        C978   1.278       .  A
O973       Ni991   1.915       .  S
O973        C975   1.280       .  A
Ni974       O977   1.980       .  S
Ni974       O979   1.973       .  S
C975        O985   1.308       .  A
C975       C1333   1.522       .  S
O976       Ni992   1.966       .  S
O976        C982   1.292       .  A
O977        C982   1.288       .  A
O979        C981   1.285       .  A
O980       Ni991   1.894       .  S
C981        O987   1.281       .  A
H983        O984   0.966       .  S
O984       Ni992   1.921       .  S
O984       Ni986   1.958       .  S
O984       Ni991   1.932       .  S
O985       Ni986   2.033       .  S
Ni986       O990   1.990       .  S
Ni986       O988   1.936       .  S
O987       Ni992   1.981       .  S
C989        O990   1.290       .  A
C989       C1009   1.556       .  S
N994        C998   1.345       .  A
N994        C995   1.384       .  A
C995       C1313   1.522       .  S
C995        C996   1.389       .  A
C996        C997   1.385       .  A
C996       H1337   1.083       .  S
C997        C998   1.378       .  A
C997       H1000   1.082       .  S
H999       C1334   1.083       .  S
N1001      C1005   1.361       .  A
N1001      C1002   1.355       .  A
C1002      C1003   1.382       .  A
C1003      C1004   1.356       .  A
C1003      H1006   1.083       .  S
C1004      C1005   1.387       .  A
C1004      H1007   1.083       .  S
N1008      C1012   1.376       .  A
N1008      C1009   1.409       .  A
C1009      C1010   1.383       .  A
C1010      C1011   1.365       .  A
C1010      H1013   1.083       .  S
C1011      C1012   1.385       .  A
C1011      H1014   1.082       .  S
O1015     Ni1021   1.912       .  S
O1015      C1036   1.273       .  A
O1016     Ni1039   1.899       .  S
O1016      C1025   1.258       .  A
O1017     Ni1021   1.930       .  S
O1017     Ni1039   1.922       .  S
O1017     Ni1033   1.958       .  S
O1017      H1040   0.966       .  S
C1018      O1035   1.305       .  A
C1018      O1027   1.282       .  A
C1018      C1178   1.523       .  S
O1019     Ni1038   1.880       .  S
O1019      C1025   1.264       .  A
O1020     Ni1038   1.937       .  S
O1020      C1022   1.269       .  A
Ni1021     O1024   1.924       .  S
Ni1021     O1026   1.947       .  S
C1022      O1032   1.299       .  A
C1022      C1042   1.535       .  S
O1023     Ni1039   1.957       .  S
O1023      C1029   1.282       .  A
O1024      C1029   1.270       .  A
C1025      C1062   1.451       .  S
O1026      C1028   1.278       .  A
O1027     Ni1038   1.931       .  S
C1028      O1034   1.265       .  A
C1028      C1068   1.494       .  S
H1030      O1031   0.966       .  S
O1031     Ni1039   1.943       .  S
O1031     Ni1033   1.877       .  S
O1031     Ni1038   1.906       .  S
O1032     Ni1033   2.000       .  S
Ni1033     O1037   1.965       .  S
Ni1033     O1035   2.002       .  S
O1034     Ni1039   1.929       .  S
C1036      O1037   1.292       .  A
N1041      C1113   1.462       .  S
N1041      C1045   1.361       .  A
N1041      C1042   1.393       .  A
C1042      C1043   1.387       .  A
C1043      C1044   1.378       .  A
C1043      H1046   1.083       .  S
C1044      C1045   1.379       .  A
C1044      H1047   1.079       .  S
C1045      C1133   1.489       .  S
N1048      C1081   1.436       .  S
N1048      C1052   1.368       .  A
N1048      C1049   1.374       .  A
C1049      C1050   1.377       .  A
C1050      C1051   1.370       .  A
C1051      C1052   1.387       .  A
C1051      H1054   1.080       .  S
C1052      C1129   1.515       .  S
N1055      C1059   1.342   1_455  A
N1055      C1056   1.362   1_455  A
C1056      C1114   1.469       .  S
C1056      C1057   1.379       .  A
C1057      C1058   1.350       .  A
C1057      H1060   1.083       .  S
C1058      C1059   1.394       .  A
C1058      H1061   1.083       .  S
C1059      C1077   1.460       .  S
C1062      N1063   1.346       .  A
C1062      N1067   1.368       .  A
N1063      C1064   1.346       .  A
C1064      C1155   1.483       .  S
C1064      N1065   1.356       .  A
N1065      C1066   1.364       .  A
C1066      C1283   1.464       .  S
C1066      N1067   1.365       .  A
C1068      N1069   1.354       .  A
C1068      N1073   1.377       .  A
N1069      C1070   1.358       .  A
C1070      C1173   1.481       .  S
C1070      N1071   1.347       .  A
N1071      C1072   1.365       .  A
C1072      C1231   1.490       .  S
C1072      N1073   1.377       .  A
O1074     Ni1080   1.909       .  S
O1074      C1095   1.261       .  A
O1075     Ni1098   1.952       .  S
O1075      C1084   1.293       .  A
O1076     Ni1080   1.891       .  S
O1076     Ni1098   1.892       .  S
O1076     Ni1092   1.927       .  S
O1076      H1099   0.966       .  S
C1077      O1094   1.316       .  A
C1077      O1086   1.269       .  A
O1078     Ni1097   1.882       .  S
O1078      C1084   1.266       .  A
O1079     Ni1097   1.870       .  S
O1079      C1081   1.269       .  A
Ni1080     O1085   1.872   1_655  S
C1081      O1091   1.290       .  A
O1082      C1088   1.269       .  A
O1083      C1088   1.288       .  A
C1084      C1162   1.458       .  S
O1086     Ni1097   1.809       .  S
C1087      C1140   1.450       .  S
C1088      C1103   1.445       .  S
H1089      O1090   0.967       .  S
O1090     Ni1098   1.816       .  S
O1090     Ni1092   1.851       .  S
O1090     Ni1097   1.832       .  S
O1091     Ni1092   1.952       .  S
Ni1092     O1096   1.967       .  S
Ni1092     O1094   2.001       .  S
O1093     Ni1098   1.947       .  S
C1095      O1096   1.276       .  A
C1095      C1302   1.481       .  S
O1100     Ni1106   1.887       .  S
O1100      C1121   1.274       .  A
O1101     Ni1124   1.984       .  S
O1101      C1110   1.289       .  A
O1102     Ni1106   1.839       .  S
O1102     Ni1124   1.845       .  S
O1102     Ni1118   1.854       .  S
O1102      H1125   0.968       .  S
C1103      O1120   1.276       .  A
C1103      O1112   1.285       .  A
O1104     Ni1123   1.908       .  S
O1104      C1110   1.265       .  A
O1105     Ni1123   1.910   1_455  S
Ni1106     O1109   1.842       .  S
Ni1106     O1111   1.878       .  S
O1108     Ni1124   2.010       .  S
O1108      C1114   1.314       .  A
O1109      C1114   1.273       .  A
C1110      C1298   1.506       .  S
O1111      C1113   1.268       .  A
O1112     Ni1123   1.948       .  S
C1113      O1119   1.314       .  A
H1115      O1116   0.967       .  S
O1116     Ni1124   1.909       .  S
O1116     Ni1118   1.871       .  S
O1116     Ni1123   1.887       .  S
O1117     Ni1118   1.964       .  S
Ni1118     O1122   1.905       .  S
Ni1118     O1120   1.857       .  S
O1119     Ni1124   2.020       .  S
C1121      O1122   1.278       .  A
C1121      C1165   1.438       .  S
O1126     Ni1132   1.911       .  S
O1126      C1147   1.265       .  A
O1127     Ni1150   1.849       .  S
O1127      C1136   1.246       .  A
O1128     Ni1132   1.864       .  S
O1128     Ni1150   1.856       .  S
O1128     Ni1144   1.903       .  S
O1128      H1151   0.965       .  S
C1129      O1146   1.263       .  A
C1129      O1138   1.252       .  A
O1130     Ni1149   1.862       .  S
O1130      C1136   1.258       .  A
O1131     Ni1149   1.885       .  S
O1131      C1133   1.274       .  A
Ni1132     O1135   1.969       .  S
Ni1132     O1137   1.889       .  S
C1133      O1143   1.300       .  A
O1134     Ni1150   1.884       .  S
O1134      C1140   1.269       .  A
O1135      C1140   1.292       .  A
C1136      C1166   1.375       .  S
O1137      C1139   1.253       .  A
O1138     Ni1149   1.856       .  S
C1139      O1145   1.279       .  A
H1141      O1142   0.966       .  S
O1142     Ni1150   1.938       .  S
O1142     Ni1144   1.923       .  S
O1142     Ni1149   1.921       .  S
O1143     Ni1144   1.997       .  S
Ni1144     O1148   1.934       .  S
Ni1144     O1146   1.954       .  S
O1145     Ni1150   1.998       .  S
C1147      O1148   1.272       .  A
C1147      C1292   1.458       .  S
O1152     Ni1158   1.871       .  S
O1152      C1173   1.252       .  A
O1153      C1162   1.260       .  A
O1154     Ni1176   1.874       .  S
O1154      H1177   0.967       .  S
C1155      O1172   1.250       .  A
C1155      O1164   1.265       .  A
O1156     Ni1175   1.927       .  S
O1156      C1162   1.271       .  A
O1157     Ni1175   1.929       .  S
Ni1158     O1163   1.892       .  S
C1159      O1169   1.308       .  A
C1159      C1182   1.507       .  S
O1160     Ni1176   1.832       .  S
O1160      C1166   1.267       .  A
O1161      C1166   1.284       .  A
C1165      O1171   1.247       .  A
H1167      O1168   0.960       .  S
O1168     Ni1170   1.964   1_655  S
Ni1170     O1172   1.913   1_455  S
C1173      O1174   1.282       .  A
C1178      N1179   1.388       .  A
C1178      N1183   1.374       .  A
N1179      C1180   1.377       .  A
C1180      C1246   1.516       .  S
C1180      N1181   1.365       .  A
N1181      C1182   1.352       .  A
C1182      N1183   1.375       .  A
O1184     Ni1190   1.885       .  S
O1184      C1205   1.262       .  A
O1185      C1194   1.293       .  A
O1186     Ni1190   1.897       .  S
O1186     Ni1208   1.937   1_556  S
O1186     Ni1202   1.909       .  S
O1186      H1209   0.965       .  S
C1187      O1204   1.280       .  A
C1187      O1196   1.277       .  A
C1187      C1272   1.366       .  S
O1188     Ni1207   1.859       .  S
O1188      C1194   1.243   1_556  A
O1189      C1191   1.252       .  A
Ni1190     O1193   1.853   1_556  S
Ni1190     O1195   1.914       .  S
C1191      O1201   1.245       .  A
C1191      C1220   1.420       .  S
O1192     Ni1208   1.932       .  S
O1192      C1198   1.265       .  A
O1193      C1198   1.253       .  A
C1194      C1296   1.504       .  S
O1195      C1197   1.282       .  A
O1196     Ni1207   1.880       .  S
C1197      O1203   1.315   1_556  A
C1198      C1290   1.482       .  S
H1199      O1200   0.967       .  S
O1200     Ni1207   1.859       .  S
Ni1202     O1206   1.901       .  S
O1203     Ni1208   2.019       .  S
C1205      O1206   1.269       .  A
C1205      C1257   1.444       .  S
O1210     Ni1216   1.896       .  S
O1210      C1231   1.262       .  A
O1211     Ni1234   1.911       .  S
O1211      C1220   1.275       .  A
O1212     Ni1216   1.888       .  S
O1212     Ni1234   1.867       .  S
O1212     Ni1228   1.899       .  S
O1212      H1235   0.966       .  S
C1213      O1230   1.266       .  A
C1213      O1222   1.246       .  A
C1213      C1343   1.493       .  S
O1214     Ni1233   1.848       .  S
O1214      C1220   1.257       .  A
O1215     Ni1233   1.893       .  S
O1215      C1217   1.263       .  A
Ni1216     O1221   1.875       .  S
C1217      O1227   1.306       .  A
C1217      N1332   1.438   1_565  S
O1218      C1224   1.281       .  A
O1219      C1224   1.277       .  A
O1221      C1223   1.257       .  A
O1222     Ni1233   1.857       .  S
C1223      O1229   1.273       .  A
C1224      C1239   1.438       .  S
H1225      O1226   0.967       .  S
O1226     Ni1234   1.907       .  S
O1226     Ni1228   1.928       .  S
O1226     Ni1233   1.930       .  S
O1227     Ni1228   1.993       .  S
Ni1228     O1232   1.970       .  S
Ni1228     O1230   1.954       .  S
O1229     Ni1234   1.932       .  S
C1231      O1232   1.278       .  A
O1236     Ni1242   1.858       .  S
O1236      C1257   1.245       .  A
O1237     Ni1260   2.010       .  S
O1237      C1246   1.295       .  A
O1238     Ni1242   1.868       .  S
O1238     Ni1260   1.908       .  S
O1238     Ni1254   1.902       .  S
O1238      H1261   0.966       .  S
C1239      O1256   1.270       .  A
C1239      O1248   1.292       .  A
O1240     Ni1259   1.902       .  S
O1240      C1246   1.256       .  A
O1241     Ni1259   1.882       .  S
Ni1242     O1245   1.861       .  S
Ni1242     O1247   1.891       .  S
C1243      C1275   1.453       .  S
O1244     Ni1260   2.029       .  S
O1244      C1250   1.318       .  A
O1245      C1250   1.263       .  A
O1247      C1249   1.270       .  A
O1248     Ni1259   1.966       .  S
C1249      O1255   1.278       .  A
C1249      N1346   1.459       .  S
C1250      C1340   1.477       .  S
H1251      O1252   0.967       .  S
O1252     Ni1260   1.921       .  S
O1252     Ni1254   1.871       .  S
O1252     Ni1259   1.876       .  S
O1253     Ni1254   1.932       .  S
Ni1254     O1258   1.907       .  S
Ni1254     O1256   1.855       .  S
O1255     Ni1260   1.978       .  S
C1257      O1258   1.254       .  A
O1262     Ni1268   1.914       .  S
O1262      C1283   1.256       .  A
O1263     Ni1286   1.812       .  S
O1263      C1272   1.244       .  A
O1264     Ni1268   1.850       .  S
O1264     Ni1286   1.852       .  S
O1264     Ni1280   1.892       .  S
O1264      H1287   0.967       .  S
C1265      O1282   1.292       .  A
C1265      O1274   1.274       .  A
C1265      C1336   1.488   1_565  S
O1266     Ni1285   1.886       .  S
O1266      C1272   1.254       .  A
O1267     Ni1285   1.906       .  S
O1267      C1269   1.266       .  A
Ni1268     O1271   1.968       .  S
Ni1268     O1273   1.882       .  S
C1269      O1279   1.277       .  A
C1269      C1350   1.529       .  S
O1270     Ni1286   1.883       .  S
O1270      C1276   1.271       .  A
O1271      C1276   1.291       .  A
O1274     Ni1285   1.898       .  S
H1277      O1278   0.964       .  S
O1278     Ni1286   1.905       .  S
O1278     Ni1280   1.898       .  S
O1278     Ni1285   1.888       .  S
O1279     Ni1280   1.990       .  S
Ni1280     O1284   1.946       .  S
Ni1280     O1282   1.949       .  S
O1281     Ni1286   1.941       .  S
C1283      O1284   1.275       .  A
C1288      C1309   1.474       .  S
C1288      N1289   1.364       .  A
C1288      N1293   1.363   1_556  A
N1289      C1290   1.364   1_556  A
C1290      N1291   1.342       .  A
N1291      C1292   1.355       .  A
C1292      N1293   1.357       .  A
C1294      C1319   1.547       .  S
C1294      N1295   1.368       .  A
C1294      N1299   1.386   1_556  A
N1295      C1296   1.375   1_556  A
C1296      N1297   1.349       .  A
N1297      C1298   1.367       .  A
C1298      N1299   1.388       .  A
C1300      C1316   1.510       .  S
C1300      N1301   1.375   1_556  A
C1300      N1305   1.375       .  A
N1301      C1302   1.371       .  A
C1302      N1303   1.358       .  A
N1303      C1304   1.346   1_554  A
C1304      N1305   1.375       .  A
O1306     Ni1312   1.983       .  S
O1306      C1327   1.290       .  A
O1307     Ni1330   1.965       .  S
O1307      C1316   1.286       .  A
O1308     Ni1312   1.929       .  S
O1308     Ni1330   1.951       .  S
O1308     Ni1324   1.922       .  S
O1308      H1331   0.966       .  S
C1309      O1326   1.263       .  A
C1309      O1318   1.260       .  A
O1310     Ni1329   1.947       .  S
O1310      C1316   1.278       .  A
O1311     Ni1329   1.915       .  S
O1311      C1313   1.280       .  A
Ni1312     O1315   1.980       .  S
Ni1312     O1317   1.973       .  S
C1313      O1323   1.308       .  A
O1314     Ni1330   1.966       .  S
O1314      C1320   1.292       .  A
O1315      C1320   1.288       .  A
O1317      C1319   1.285       .  A
O1318     Ni1329   1.894       .  S
C1319      O1325   1.281       .  A
H1321      O1322   0.966       .  S
O1322     Ni1330   1.921       .  S
O1322     Ni1324   1.958       .  S
O1322     Ni1329   1.932       .  S
O1323     Ni1324   2.033       .  S
Ni1324     O1328   1.990       .  S
Ni1324     O1326   1.936       .  S
O1325     Ni1330   1.981       .  S
C1327      O1328   1.290       .  A
C1327      C1347   1.556       .  S
N1332      C1336   1.345       .  A
N1332      C1333   1.384       .  A
C1333      C1334   1.389       .  A
C1334      C1335   1.385       .  A
C1335      C1336   1.378       .  A
C1335      H1338   1.082       .  S
N1339      C1343   1.361       .  A
N1339      C1340   1.355       .  A
C1340      C1341   1.382       .  A
C1341      C1342   1.356       .  A
C1341      H1344   1.083       .  S
C1342      C1343   1.387       .  A
C1342      H1345   1.083       .  S
N1346      C1350   1.376       .  A
N1346      C1347   1.409       .  A
C1347      C1348   1.383       .  A
C1348      C1349   1.365       .  A
C1348      H1351   1.083       .  S
C1349      C1350   1.385       .  A
C1349      H1352   1.082       .  S
