geometry optimzed in LAMMPS
_audit_creation_date              2020-12-01 
_audit_creation_method            'lammps2cif' 
_symmetry_space_group_name_H-M    'P1' 
_symmetry_Int_Tables_number       1 
_symmetry_cell_setting            triclinic 
loop_ 
_symmetry_equiv_pos_as_xyz 
  x,y,z 
_cell_length_a                    28.10691957 
_cell_length_b                    28.06928727086831 
_cell_length_c                    43.96624954653402 
_cell_angle_alpha                 89.97301696836557 
_cell_angle_beta                  90.20266149206003 
_cell_angle_gamma                 83.61284605556231 
loop_ 
_atom_site_label 
_atom_site_type_symbol 
_atom_site_fract_x 
_atom_site_fract_y 
_atom_site_fract_z 
_atom_site_charge 
N1          N  0.08564280  0.98788001  0.44412992    -0.06100
N2          N  0.11402948  0.00556818  0.42423385    -0.58200
N3          N  0.03917700  0.88871902  0.46506375    -0.05800
N4          N  0.04244765  0.84238357  0.45937432    -0.60400
N5          N  0.01393470  0.91298605  0.44378311    -0.05400
N6          N  0.99959420  0.88341179  0.42316758    -0.58200
N7          N  0.11098691  0.96337834  0.46528694    -0.05100
N8          N  0.15718208  0.96393430  0.46006579    -0.60700
C9          C  0.15867867  0.99065475  0.43446306     0.96100
C10         C  0.01754951  0.83936651  0.43322853     0.95800
N11         N  0.01240872  0.91236221  0.05764641    -0.06300
N12         N  0.99387502  0.88335379  0.07684617    -0.58800
N13         N  0.11108526  0.96205488  0.03724948    -0.04400
N14         N  0.15734862  0.96227834  0.04254359    -0.60100
N15         N  0.08588144  0.98635282  0.05837052    -0.06300
N16         N  0.11453231  0.00368028  0.07840995    -0.59100
N17         N  0.03794855  0.88759309  0.03683320    -0.04100
N18         N  0.03730196  0.84112639  0.04158220    -0.60100
Mn19       Mn  0.07595293  0.92437515  0.50112697     1.18400
C20         C  0.00961547  0.83888956  0.06665402     0.98200
C21         C  0.15911753  0.98869351  0.06822427     0.98800
N22         N  0.92828621  0.99717294  0.44341869    -0.06300
N23         N  0.89924769  0.98286999  0.42246012    -0.62700
N24         N  0.97584904  0.09600687  0.46434656    -0.05100
N25         N  0.97284762  0.14233309  0.45811656    -0.63300
N26         N  0.00054998  0.07116133  0.44322317    -0.05800
N27         N  0.01490169  0.10010264  0.42230469    -0.62900
N28         N  0.90361019  0.02204058  0.46456841    -0.04700
N29         N  0.85741555  0.02498824  0.45843880    -0.63600
Mn30       Mn  0.00709108  0.99209627  0.44281451     1.10700
C31         C  0.85500279  0.00015781  0.43219079     0.99400
C32         C  0.99776235  0.14454175  0.43189904     0.99500
N33         N  0.00146839  0.06986168  0.05784688    -0.05900
N34         N  0.01754860  0.09864323  0.07824427    -0.61200
N35         N  0.90361794  0.02224152  0.03654393    -0.05200
N36         N  0.85739963  0.02547274  0.04255408    -0.58000
N37         N  0.92820273  0.99693118  0.05767343    -0.06500
N38         N  0.89912779  0.98235259  0.07840954    -0.60800
N39         N  0.97742279  0.09485110  0.03634840    -0.05500
N40         N  0.97694794  0.14116878  0.04156391    -0.58000
Mn41       Mn  0.00698038  0.99123371  0.05874759     1.20200
Mn42       Mn  0.93923023  0.05970766  0.00050957     1.10100
Cl43       Cl  0.00725189  0.99181100  0.00077722    -0.86000
C44         C  0.00247692  0.14297038  0.06758990     0.96400
C45         C  0.85500414  0.00039012  0.06869133     0.96200
C46         C  0.98114491  0.53548669  0.18514360     0.80200
N47         N  0.98404302  0.49280313  0.17032474    -0.78100
C48         C  0.99285918  0.45077119  0.18567747     0.82700
N49         N  0.99855075  0.45127237  0.21633401    -0.78000
C50         C  0.99577175  0.49350936  0.23158236     0.82800
N51         N  0.98738518  0.53547398  0.21590619    -0.79700
C52         C  0.00873483  0.53618107  0.31061341     0.80200
N53         N  0.01089936  0.49422462  0.32622466    -0.78100
C54         C  0.00922547  0.45181666  0.31166852     0.82700
N55         N  0.00448411  0.45183561  0.28083727    -0.78000
C56         C  0.00185040  0.49363639  0.26486420     0.82800
N57         N  0.00386558  0.53566220  0.27987011    -0.79700
C58         C  0.46543395  0.00267043  0.18740718     0.80200
N59         N  0.50849625  0.99673830  0.17316051    -0.78100
C60         C  0.55022264  0.99274733  0.18918387     0.82700
N61         N  0.54822719  0.99477874  0.22001682    -0.78000
C62         C  0.50551704  0.00033341  0.23468721     0.82800
N63         N  0.46417179  0.00405497  0.21831977    -0.79700
C64         C  0.46147856  0.00831579  0.31418909     0.80200
N65         N  0.46219378  0.00554557  0.28329424    -0.78100
C66         C  0.50443091  0.00287273  0.26808251     0.82700
N67         N  0.54599993  0.00282345  0.28390998    -0.78000
C68         C  0.54565473  0.00523326  0.31473399     0.82800
N69         N  0.50338530  0.00759469  0.32976342    -0.79700
C70         C  0.98737237  0.32466609  0.33281859    -0.02000
C71         C  0.00510411  0.32041300  0.36283659     0.06600
C72         C  0.02608635  0.35869414  0.37569880    -0.08000
C73         C  0.02918988  0.40111569  0.35931843     0.04000
C74         C  0.00989374  0.40632521  0.32944363    -0.15200
C75         C  0.98956889  0.36734794  0.31653144    -0.08500
C76         C  0.00325772  0.27585032  0.38093393     0.05000
C77         C  0.03323783  0.23456021  0.37294231    -0.09600
C78         C  0.03275966  0.19175147  0.38933817     0.00000
C79         C  0.00151541  0.18962821  0.41444950    -0.00200
C80         C  0.97192750  0.23147291  0.42258267    -0.13200
C81         C  0.97251244  0.27421443  0.40607936     0.00300
C82         C  0.06537608  0.15108535  0.37995384     0.39600
C83         C  0.94029723  0.31561743  0.41477825     0.36200
C84         C  0.96625612  0.28582749  0.31841351     0.36000
C85         C  0.05423960  0.43755937  0.37345979     0.36700
N86         N  0.09163168  0.11862996  0.37232228    -0.44100
N87         N  0.91442215  0.34881399  0.42164648    -0.44500
N88         N  0.07460124  0.46653741  0.38480310    -0.41900
N89         N  0.94956403  0.25456642  0.30684538    -0.43300
H90         H  0.97470799  0.37029401  0.29371675     0.12800
H91         H  0.04078803  0.35506223  0.39855292     0.09300
H92         H  0.05730214  0.23589550  0.35378064     0.10400
H93         H  0.94756681  0.23073006  0.44161200     0.16200
C94         C  0.97905663  0.75386746  0.37366521    -0.02000
C95         C  0.00879583  0.71135763  0.38024486     0.06600
C96         C  0.04051697  0.71031411  0.40491168    -0.08000
C97         C  0.04341961  0.75095370  0.42291879     0.04000
C98         C  0.01427743  0.79422101  0.41606540    -0.15200
C99         C  0.98213806  0.79483343  0.39142612    -0.08500
C100        C  0.00720738  0.66715087  0.36203084     0.05000
C101        C  0.02497315  0.66534975  0.33223975    -0.09600
C102        C  0.02617123  0.62325890  0.31493814     0.00000
C103        C  0.00898114  0.58198215  0.32754054    -0.00200
C104        C  0.99129778  0.58421587  0.35746198    -0.13200
C105        C  0.99023826  0.62618438  0.37463153     0.00300
C106        C  0.04718020  0.62308553  0.28499983     0.39600
C107        C  0.97077737  0.62671079  0.40499929     0.36200
C108        C  0.94426902  0.75586646  0.34934175     0.36000
C109        C  0.07742092  0.74682401  0.44773458     0.36700
N110        N  0.06420150  0.62313391  0.26106652    -0.44100
N111        N  0.95514791  0.62728042  0.42932648    -0.44500
N112        N  0.10479917  0.74306781  0.46755027    -0.41900
N113        N  0.91618681  0.75744645  0.32995338    -0.43300
H114        H  0.95912897  0.82737814  0.38601450     0.12800
H115        H  0.06329564  0.67747358  0.41002201     0.09300
H116        H  0.03877302  0.69671811  0.32271213     0.10400
H117        H  0.97764315  0.55315787  0.36748667     0.16200
C118        C  0.96419969  0.35556633  0.13000325    -0.02000
C119        C  0.00178890  0.31884336  0.13537476     0.06600
C120        C  0.03654079  0.32562223  0.15745160    -0.08000
C121        C  0.03414972  0.36813574  0.17427918     0.04000
C122        C  0.99653485  0.40493073  0.16890852    -0.15200
C123        C  0.96203011  0.39825399  0.14662288    -0.08500
C124        C  0.00514538  0.27296917  0.11837767     0.05400
C125        C  0.01151910  0.27339029  0.08672810    -0.09600
C126        C  0.01223271  0.23114024  0.06975320     0.00000
C127        C  0.00693597  0.18749027  0.08461113    -0.00200
C128        C  0.00262752  0.18677566  0.11638729    -0.13200
C129        C  0.00124088  0.22908231  0.13329156     0.00300
C130        C  0.01946240  0.23326510  0.03728648     0.39600
C131        C  0.99330589  0.22695901  0.16567576     0.36200
C132        C  0.92676344  0.34967556  0.10818788     0.36000
C133        C  0.07183017  0.37384296  0.19593514     0.36700
N134        N  0.02542082  0.23471271  0.01128115    -0.44100
N135        N  0.98681357  0.22534841  0.19161490    -0.44500
N136        N  0.10214351  0.37841001  0.21321338    -0.41900
N137        N  0.89681248  0.34482029  0.09070192    -0.43300
H138        H  0.93280604  0.42617181  0.14255842     0.12800
H139        H  0.06577586  0.29764734  0.16139846     0.09300
H140        H  0.01544138  0.30697135  0.07525446     0.10400
H141        H  0.99826292  0.15337432  0.12795103     0.16200
C142        C  0.98623181  0.66691125  0.16587677    -0.02000
C143        C  0.97394266  0.66887399  0.13474174     0.06600
C144        C  0.96000373  0.62780085  0.12070468    -0.08000
C145        C  0.95968724  0.58466285  0.13681640     0.04000
C146        C  0.97470744  0.58168162  0.16774138    -0.15200
C147        C  0.98647836  0.62377431  0.18200398    -0.08500
C148        C  0.97976761  0.71190360  0.11583192     0.05000
C149        C  0.01638540  0.70875874  0.09410328    -0.09600
C150        C  0.02634407  0.74904916  0.07739868     0.00000
C151        C  0.99897994  0.79392240  0.08214975    -0.00200
C152        C  0.96118790  0.79645761  0.10327189    -0.13200
C153        C  0.95133757  0.75604427  0.11993172     0.00300
C154        C  0.06643667  0.74333201  0.05681448     0.39600
C155        C  0.91181816  0.76067063  0.14101127     0.36200
C156        C  0.00097708  0.70812799  0.18144292     0.36000
C157        C  0.94345630  0.54455966  0.12075885     0.36700
N158        N  0.09884276  0.73834891  0.04051615    -0.44100
N159        N  0.88015660  0.76444388  0.15791646    -0.44500
N160        N  0.93028557  0.51269777  0.10768783    -0.41900
N161        N  0.01256610  0.74126675  0.19392201    -0.43300
H162        H  0.99766441  0.62281763  0.20564076     0.12800
H163        H  0.94998673  0.62932117  0.09683937     0.09300
H164        H  0.03834643  0.67485125  0.09087409     0.10400
H165        H  0.93931274  0.83025293  0.10698988     0.16200
C166        C  0.72459106  0.02571644  0.40962725    -0.02000
C167        C  0.72239561  0.99924135  0.38261625     0.06600
C168        C  0.76371217  0.97214518  0.37182214    -0.08000
C169        C  0.80727094  0.97110307  0.38758090     0.04000
C170        C  0.80975918  0.99770711  0.41485262    -0.15200
C171        C  0.76785812  0.02457158  0.42553709    -0.08500
C172        C  0.67726025  0.99988500  0.36515818     0.05000
C173        C  0.66959614  0.03083504  0.34018666    -0.09600
C174        C  0.62682731  0.03338001  0.32354767     0.00000
C175        C  0.59099968  0.00438751  0.33189301    -0.00200
C176        C  0.59865595  0.97371303  0.35709751    -0.13200
C177        C  0.64156356  0.97102425  0.37359848     0.00300
C178        C  0.61970545  0.06755288  0.29894460     0.39600
C179        C  0.64863517  0.93797774  0.39880493     0.36200
C180        C  0.68308889  0.05517283  0.42103602     0.36000
C181        C  0.84836373  0.94245101  0.37501319     0.36700
N182        N  0.61395108  0.09494807  0.27923075    -0.44100
N183        N  0.65449334  0.91138169  0.41894108    -0.44500
N184        N  0.88110454  0.91943890  0.36472039    -0.41900
N185        N  0.64987152  0.07891881  0.43009988    -0.43300
H186        H  0.76886032  0.04552688  0.44619523     0.12800
H187        H  0.76186566  0.95182277  0.35094748     0.09300
H188        H  0.69689408  0.05347676  0.33395564     0.10400
H189        H  0.57137478  0.95121989  0.36359002     0.16200
C190        C  0.33743107  0.98147388  0.33656241    -0.02000
C191        C  0.32877790  0.00949402  0.36304618     0.06600
C192        C  0.36354144  0.03816280  0.37300684    -0.08000
C193        C  0.40663132  0.03900275  0.35722542     0.04000
C194        C  0.41552272  0.01065438  0.33082436    -0.15200
C195        C  0.38026546  0.98270903  0.32055250    -0.08500
C196        C  0.28494629  0.00759566  0.38161738     0.05000
C197        C  0.28977308  0.98977783  0.41139449    -0.09600
C198        C  0.24956095  0.98525846  0.42946249     0.00000
C199        C  0.20303652  0.99848288  0.41760031    -0.00200
C200        C  0.19855482  0.01829069  0.38814860    -0.13200
C201        C  0.23887215  0.02311020  0.37025092     0.00300
C202        C  0.25757285  0.96730337  0.46004320     0.39600
C203        C  0.23213967  0.04446108  0.34042755     0.36200
C204        C  0.30393655  0.94955311  0.32612052     0.36000
C205        C  0.44041683  0.07022554  0.36822986     0.36700
N206        N  0.26429587  0.95303705  0.48456497    -0.44100
N207        N  0.22681445  0.06146257  0.31649934    -0.44500
N208        N  0.46740794  0.09530871  0.37707681    -0.41900
N209        N  0.27713889  0.92396478  0.31769073    -0.43300
H210        H  0.38685761  0.96047741  0.30049575     0.12800
H211        H  0.35698437  0.05985474  0.39329737     0.09300
H212        H  0.32529397  0.97868798  0.42043447     0.10400
H213        H  0.16333585  0.02947159  0.37874561     0.16200
C214        C  0.63859014  0.97979024  0.12373964    -0.02000
C215        C  0.68262246  0.98396750  0.13827035     0.06600
C216        C  0.68399149  0.98768124  0.17002423    -0.08000
C217        C  0.64207270  0.98882577  0.18735520     0.04000
C218        C  0.59705915  0.98742662  0.17269576    -0.15200
C219        C  0.59652000  0.98181673  0.14082642    -0.08500
C220        C  0.72705617  0.98716948  0.12052024     0.05000
C221        C  0.72908816  0.02643876  0.10104567    -0.09600
C222        C  0.77005231  0.03145273  0.08386517     0.00000
C223        C  0.81033268  0.99650136  0.08602215    -0.00200
C224        C  0.80838242  0.95744817  0.10585720    -0.13200
C225        C  0.76719103  0.95247112  0.12295304     0.00300
C226        C  0.77012269  0.07394162  0.06533757     0.39600
C227        C  0.76643218  0.91090788  0.14221981     0.36200
C228        C  0.63586123  0.97268226  0.09127800     0.36000
C229        C  0.64723032  0.99129682  0.21996777     0.36700
N230        N  0.76995839  0.10817300  0.05063269    -0.44100
N231        N  0.76574095  0.87756829  0.15763795    -0.44500
N232        N  0.65208837  0.99265915  0.24608561    -0.41900
N233        N  0.63386492  0.96673582  0.06528311    -0.43300
H234        H  0.56308177  0.97919130  0.12894705     0.12800
H235        H  0.71796439  0.99041963  0.18128363     0.09300
H236        H  0.69853262  0.05362846  0.09951768     0.10400
H237        H  0.83895249  0.93038130  0.10777928     0.16200
C238        C  0.33776831  0.98644692  0.16542886    -0.02000
C239        C  0.33450571  0.00475687  0.13555733     0.06600
C240        C  0.37378923  0.02437145  0.12304519    -0.08000
C241        C  0.41638996  0.02517756  0.13964709     0.04000
C242        C  0.42022687  0.00572822  0.16944173    -0.15200
C243        C  0.38021025  0.98727956  0.18211203    -0.08500
C244        C  0.29061242  0.00275833  0.11689960     0.05000
C245        C  0.24892585  0.03247359  0.12442810    -0.09600
C246        C  0.20600125  0.02959021  0.10852683     0.00000
C247        C  0.20429844  0.99613980  0.08450279    -0.00200
C248        C  0.24671222  0.96748166  0.07649386    -0.13200
C249        C  0.28949440  0.97040919  0.09249428     0.00300
C250        C  0.16466386  0.06171083  0.11738245     0.39600
C251        C  0.33134599  0.93843963  0.08434976     0.36200
C252        C  0.29862535  0.96482879  0.17893912     0.36000
C253        C  0.45487776  0.04740537  0.12576089     0.36700
N254        N  0.13164931  0.08756535  0.12456145    -0.44100
N255        N  0.36491719  0.91277021  0.07795825    -0.44500
N256        N  0.48561767  0.06532329  0.11459780    -0.41900
N257        N  0.26725567  0.94735324  0.18965648    -0.43300
H258        H  0.38247343  0.97209038  0.20482461     0.12800
H259        H  0.37111842  0.03900310  0.10018533     0.09300
H260        H  0.24988393  0.05769698  0.14305052     0.10400
H261        H  0.24629649  0.94163386  0.05819828     0.16200
N262        N  0.08563272  0.98787295  0.94412439    -0.06100
N263        N  0.11401744  0.00555995  0.92422669    -0.58200
N264        N  0.03916766  0.88871519  0.96506168    -0.05800
N265        N  0.04244207  0.84237986  0.95937177    -0.60400
N266        N  0.01392351  0.91298096  0.94378130    -0.05400
N267        N  0.99958590  0.88340568  0.92316526    -0.58200
N268        N  0.11097863  0.96337296  0.96528140    -0.05100
N269        N  0.15717335  0.96392870  0.96005830    -0.60700
C270        C  0.15866748  0.99064735  0.93445451     0.96100
C271        C  0.01754478  0.83936126  0.93322590     0.95800
N272        N  0.01241549  0.91236356  0.55764925    -0.06300
N273        N  0.99388209  0.88335476  0.57684884    -0.58800
N274        N  0.11108865  0.96206017  0.53725293    -0.04400
N275        N  0.15735177  0.96228764  0.54254536    -0.60100
N276        N  0.08588450  0.98635843  0.55837369    -0.06300
N277        N  0.11453530  0.00368980  0.57841165    -0.59100
N278        N  0.03795557  0.88759503  0.53683594    -0.04100
N279        N  0.03730990  0.84112817  0.54158488    -0.60100
Mn280      Mn  0.07594624  0.92437144  0.00112350     1.18400
C281        C  0.00962336  0.83889087  0.56665667     0.98200
C282        C  0.15912055  0.98870513  0.56822490     0.98800
N283        N  0.92827608  0.99717175  0.94341866    -0.06300
N284        N  0.89923451  0.98286871  0.92246196    -0.62700
N285        N  0.97584713  0.09600322  0.96434282    -0.05100
N286        N  0.97284420  0.14232867  0.95811122    -0.63300
N287        N  0.00054353  0.07115589  0.94321832    -0.05800
N288        N  0.01489102  0.10009545  0.92229733    -0.62900
N289        N  0.90360333  0.02204297  0.96456825    -0.04700
N290        N  0.85740789  0.02499263  0.95844051    -0.63600
Mn291      Mn  0.00708124  0.99209124  0.94281151     1.10700
C292        C  0.85499113  0.00016003  0.93219363     0.99400
C293        C  0.99775352  0.14453512  0.93189159     0.99500
N294        N  0.00146564  0.06986328  0.55784992    -0.05900
N295        N  0.01754507  0.09864671  0.57824646    -0.61200
N296        N  0.90361941  0.02223470  0.53654588    -0.05200
N297        N  0.85740098  0.02545916  0.54255573    -0.58000
N298        N  0.92820639  0.99692577  0.55767517    -0.06500
N299        N  0.89913343  0.98234081  0.57841024    -0.60800
N300        N  0.97741869  0.09485089  0.53635125    -0.05500
N301        N  0.97694242  0.14116894  0.54156536    -0.58000
Mn302      Mn  0.00698335  0.99123490  0.55875043     1.20200
Mn303      Mn  0.93923101  0.05970609  0.50051177     1.10100
Cl304      Cl  0.00725683  0.99181311  0.50078009    -0.86000
C305        C  0.00247156  0.14297277  0.56759094     0.96400
C306        C  0.85500834  0.00037316  0.56869217     0.96200
C307        C  0.98115646  0.53548838  0.68514307     0.80200
N308        N  0.98405618  0.49280661  0.67032234    -0.78100
C309        C  0.99287476  0.45077332  0.68567307     0.82700
N310        N  0.99856709  0.45127104  0.71632961    -0.78000
C311        C  0.99578682  0.49350656  0.73157973     0.82800
N312        N  0.98739806  0.53547275  0.71590549    -0.79700
C313        C  0.00875369  0.53617219  0.81061137     0.80200
N314        N  0.01090778  0.49421598  0.82622208    -0.78100
C315        C  0.00922594  0.45180973  0.81166541     0.82700
N316        N  0.00448775  0.45183016  0.78083399    -0.78000
C317        C  0.00186424  0.49363086  0.76486148     0.82800
N318        N  0.00388659  0.53565490  0.77986800    -0.79700
C319        C  0.46543829  0.00267047  0.68740339     0.80200
N320        N  0.50850142  0.99672706  0.67315815    -0.78100
C321        C  0.55022677  0.99273070  0.68918292     0.82700
N322        N  0.54822893  0.99476980  0.72001580    -0.78000
C323        C  0.50551727  0.00033563  0.73468449     0.82800
N324        N  0.46417362  0.00406131  0.71831562    -0.79700
C325        C  0.46146659  0.00833373  0.81418325     0.80200
N326        N  0.46218689  0.00555824  0.78328865    -0.78100
C327        C  0.50442651  0.00288170  0.76807947     0.82700
N328        N  0.54599310  0.00283361  0.78390921    -0.78000
C329        C  0.54564321  0.00524975  0.81473304     0.82800
N330        N  0.50337107  0.00761476  0.82975990    -0.79700
C331        C  0.98735297  0.32466269  0.83281010    -0.02000
C332        C  0.00508097  0.32040558  0.86282873     0.06600
C333        C  0.02606264  0.35868406  0.87569450    -0.08000
C334        C  0.02917174  0.40110645  0.85931653     0.04000
C335        C  0.00988302  0.40631901  0.82943992    -0.15200
C336        C  0.98955593  0.36734515  0.81652484    -0.08500
C337        C  0.00323331  0.27584100  0.88092323     0.05000
C338        C  0.03321797  0.23455355  0.87293233    -0.09600
C339        C  0.03274427  0.19174501  0.88932884     0.00000
C340        C  0.00150019  0.18961993  0.91443992    -0.00200
C341        C  0.97190623  0.23146136  0.92257144    -0.13200
C342        C  0.97248648  0.27420240  0.90606753     0.00300
C343        C  0.06536609  0.15108175  0.87994648     0.39600
C344        C  0.94026588  0.31560217  0.91476514     0.36200
C345        C  0.96623454  0.28582759  0.81840249     0.36000
C346        C  0.05421904  0.43754761  0.87346276     0.36700
N347        N  0.09162608  0.11862866  0.87231660    -0.44100
N348        N  0.91438619  0.34879582  0.92163251    -0.44500
N349        N  0.07457832  0.46652356  0.88481042    -0.41900
N350        N  0.94954033  0.25456942  0.80683246    -0.43300
H351        H  0.97469917  0.37029410  0.79370917     0.12800
H352        H  0.04076011  0.35504909  0.89854967     0.09300
H353        H  0.05728352  0.23589131  0.85377143     0.10400
H354        H  0.94754483  0.23071641  0.94160036     0.16200
C355        C  0.97906019  0.75385392  0.87366483    -0.02000
C356        C  0.00881298  0.71135103  0.88024025     0.06600
C357        C  0.04054115  0.71031478  0.90490294    -0.08000
C358        C  0.04343688  0.75095488  0.92291054     0.04000
C359        C  0.01428068  0.79421555  0.91606161    -0.15200
C360        C  0.98213511  0.79482099  0.89142597    -0.08500
C361        C  0.00722915  0.66714248  0.86202770     0.05000
C362        C  0.02499213  0.66534162  0.83223601    -0.09600
C363        C  0.02619281  0.62324949  0.81493548     0.00000
C364        C  0.00900549  0.58197210  0.82753911    -0.00200
C365        C  0.99132750  0.58420503  0.85746184    -0.13200
C366        C  0.99026777  0.62617392  0.87463079     0.00300
C367        C  0.04720207  0.62307547  0.78499722     0.39600
C368        C  0.97081561  0.62669821  0.90500081     0.36200
C369        C  0.94426494  0.75584388  0.84934607     0.36000
C370        C  0.07744589  0.74683264  0.94772213     0.36700
N371        N  0.06422432  0.62312302  0.76106416    -0.44100
N372        N  0.95519388  0.62726589  0.92932999    -0.44500
N373        N  0.10483031  0.74308229  0.96753448    -0.41900
N374        N  0.91617651  0.75741634  0.82996161    -0.43300
H375        H  0.95911571  0.82736046  0.88601793     0.12800
H376        H  0.06332976  0.67747945  0.91001002     0.09300
H377        H  0.03878799  0.69671136  0.82270705     0.10400
H378        H  0.97767671  0.55314608  0.86748820     0.16200
C379        C  0.96420727  0.35557447  0.62999765    -0.02000
C380        C  0.00179833  0.31885224  0.63536515     0.06600
C381        C  0.03655548  0.32562989  0.65743870    -0.08000
C382        C  0.03416691  0.36814157  0.67426784     0.04000
C383        C  0.99654932  0.40493542  0.66890192    -0.15200
C384        C  0.96204007  0.39826032  0.64661884    -0.08500
C385        C  0.00514820  0.27297708  0.61837023     0.05400
C386        C  0.01152582  0.27339281  0.58672097    -0.09600
C387        C  0.01223673  0.23114023  0.56974888     0.00000
C388        C  0.00693176  0.18749431  0.58460945    -0.00200
C389        C  0.00261680  0.18678555  0.61638521    -0.13200
C390        C  0.00123394  0.22909447  0.63328661     0.00300
C391        C  0.01947372  0.23325761  0.53728254     0.39600
C392        C  0.99329398  0.22697853  0.66567057     0.36200
C393        C  0.92676612  0.34968401  0.60818573     0.36000
C394        C  0.07185138  0.37384750  0.69592111     0.36700
N395        N  0.02543835  0.23469871  0.51127760    -0.44100
N396        N  0.98679774  0.22537465  0.69160952    -0.44500
N397        N  0.10216806  0.37841306  0.71319718    -0.41900
N398        N  0.89681087  0.34482910  0.59070277    -0.43300
H399        H  0.93281410  0.42617745  0.64255810     0.12800
H400        H  0.06579128  0.29765477  0.66138257     0.09300
H401        H  0.01545440  0.30697084  0.57524573     0.10400
H402        H  0.99824526  0.15338747  0.62795059     0.16200
C403        C  0.98624327  0.66691269  0.66587774    -0.02000
C404        C  0.97394894  0.66887640  0.63474358     0.06600
C405        C  0.96000365  0.62780531  0.62070759    -0.08000
C406        C  0.95968691  0.58466764  0.63681943     0.04000
C407        C  0.97471546  0.58168437  0.66774271    -0.15200
C408        C  0.98649156  0.62377544  0.68200465    -0.08500
C409        C  0.97977434  0.71190513  0.61583354     0.05000
C410        C  0.01639615  0.70876120  0.59410775    -0.09600
C411        C  0.02635581  0.74905183  0.57740378     0.00000
C412        C  0.99898784  0.79392371  0.58215214    -0.00200
C413        C  0.96119216  0.79645785  0.60327163    -0.13200
C414        C  0.95134165  0.75604456  0.61993138     0.00300
C415        C  0.06645425  0.74333703  0.55682411     0.39600
C416        C  0.91182026  0.76066967  0.64100944     0.36200
C417        C  0.00099070  0.70812915  0.68144308     0.36000
C418        C  0.94344528  0.54456727  0.62076447     0.36700
N419        N  0.09886540  0.73835596  0.54052976    -0.44100
N420        N  0.88015721  0.76444156  0.65791352    -0.44500
N421        N  0.93026535  0.51270767  0.60769587    -0.41900
N422        N  0.01258107  0.74126789  0.69392152    -0.43300
H423        H  0.99768284  0.62281711  0.70564064     0.12800
H424        H  0.94998129  0.62932711  0.59684312     0.09300
H425        H  0.03835971  0.67485468  0.59088071     0.10400
H426        H  0.93931468  0.83025233  0.60698783     0.16200
C427        C  0.72457341  0.02570906  0.90964024    -0.02000
C428        C  0.72237836  0.99924673  0.88262395     0.06600
C429        C  0.76369690  0.97216151  0.87182342    -0.08000
C430        C  0.80725685  0.97111734  0.88758097     0.04000
C431        C  0.80974523  0.99770937  0.91485754    -0.15200
C432        C  0.76784221  0.02456284  0.92554859    -0.08500
C433        C  0.67724278  0.99989515  0.86516525     0.05000
C434        C  0.66959530  0.03082504  0.84018271    -0.09600
C435        C  0.62682897  0.03337250  0.82354097     0.00000
C436        C  0.59098625  0.00440292  0.83189481    -0.00200
C437        C  0.59862657  0.97374789  0.85710985    -0.13200
C438        C  0.64153202  0.97105595  0.87361326     0.00300
C439        C  0.61972712  0.06752408  0.79892505     0.39600
C440        C  0.64858862  0.93802439  0.89882829     0.36200
C441        C  0.68306988  0.05515666  0.92105498     0.36000
C442        C  0.84835107  0.94247682  0.87500612     0.36700
N443        N  0.61398940  0.09490195  0.77920072    -0.44100
N444        N  0.65443484  0.91143964  0.91897106    -0.44500
N445        N  0.88109290  0.91947386  0.86470760    -0.41900
N446        N  0.64985124  0.07889553  0.93012347    -0.43300
H447        H  0.76884423  0.04550871  0.94621049     0.12800
H448        H  0.76185100  0.95184948  0.85094483     0.09300
H449        H  0.69690481  0.05344914  0.83394481     0.10400
H450        H  0.57133511  0.95127057  0.86360837     0.16200
C451        C  0.33741719  0.98148693  0.83654976    -0.02000
C452        C  0.32876055  0.00950432  0.86303436     0.06600
C453        C  0.36352143  0.03817484  0.87299695    -0.08000
C454        C  0.40661252  0.03901812  0.85721730     0.04000
C455        C  0.41550798  0.01067160  0.83081581    -0.15200
C456        C  0.38025267  0.98272564  0.82054152    -0.08500
C457        C  0.28492979  0.00759909  0.88160555     0.05000
C458        C  0.28975943  0.98977912  0.91138208    -0.09600
C459        C  0.24954916  0.98525431  0.92945066     0.00000
C460        C  0.20302346  0.99847685  0.91759009    -0.00200
C461        C  0.19853855  0.01828528  0.88813862    -0.13200
C462        C  0.23885392  0.02310884  0.87023995     0.00300
C463        C  0.25756414  0.96729463  0.96003006     0.39600
C464        C  0.23211736  0.04445805  0.84041635     0.36200
C465        C  0.30392577  0.94956444  0.82610573     0.36000
C466        C  0.44039556  0.07024140  0.86822447     0.36700
N467        N  0.26428939  0.95302410  0.98455070    -0.44100
N468        N  0.22678841  0.06145752  0.81648777    -0.44500
N469        N  0.46738462  0.09532497  0.87707375    -0.41900
N470        N  0.27713050  0.92397485  0.81767426    -0.43300
H471        H  0.38684767  0.96049525  0.80048432     0.12800
H472        H  0.35696179  0.05986480  0.89328822     0.09300
H473        H  0.32528156  0.97869154  0.92042118     0.10400
H474        H  0.16331817  0.02946368  0.87873647     0.16200
C475        C  0.63859632  0.97976655  0.62373983    -0.02000
C476        C  0.68263120  0.98392517  0.63827213     0.06600
C477        C  0.68400105  0.98762239  0.67002696    -0.08000
C478        C  0.64208039  0.98877296  0.68735707     0.04000
C479        C  0.59706473  0.98739716  0.67269596    -0.15200
C480        C  0.59652500  0.98179944  0.64082574    -0.08500
C481        C  0.72706488  0.98713252  0.62052243     0.05000
C482        C  0.72909777  0.02641178  0.60105611    -0.09600
C483        C  0.77005965  0.03143112  0.58387460     0.00000
C484        C  0.81033819  0.99647662  0.58602310    -0.00200
C485        C  0.80838773  0.95741317  0.60585008    -0.13200
C486        C  0.76719735  0.95242938  0.62294590     0.00300
C487        C  0.77012971  0.07392782  0.56535439     0.39600
C488        C  0.76643613  0.91085381  0.64220153     0.36200
C489        C  0.63586547  0.97267361  0.59127686     0.36000
C490        C  0.64723785  0.99122542  0.71997041     0.36700
N491        N  0.76996486  0.10816521  0.55065517    -0.44100
N492        N  0.76574300  0.87750370  0.65761016    -0.44500
N493        N  0.65209494  0.99257269  0.74608881    -0.41900
N494        N  0.63386771  0.96673917  0.56528087    -0.43300
H495        H  0.56308507  0.97919059  0.62894468     0.12800
H496        H  0.71797585  0.99034532  0.68128783     0.09300
H497        H  0.69854401  0.05360458  0.59953479     0.10400
H498        H  0.83895634  0.93034331  0.60776520     0.16200
C499        C  0.33777381  0.98645351  0.66542160    -0.02000
C500        C  0.33451124  0.00477223  0.63555227     0.06600
C501        C  0.37379525  0.02438895  0.62304235    -0.08000
C502        C  0.41639645  0.02518901  0.63964462     0.04000
C503        C  0.42023231  0.00573272  0.66943731    -0.15200
C504        C  0.38021552  0.98728162  0.68210535    -0.08500
C505        C  0.29061838  0.00277701  0.61689402     0.05000
C506        C  0.24893215  0.03249230  0.62442329    -0.09600
C507        C  0.20600644  0.02960764  0.60852351     0.00000
C508        C  0.20430228  0.99615514  0.58450092    -0.00200
C509        C  0.24671603  0.96749808  0.57649067    -0.13200
C510        C  0.28949938  0.97042749  0.59248910     0.00300
C511        C  0.16466942  0.06172895  0.61737886     0.39600
C512        C  0.33135124  0.93845938  0.58434308     0.36200
C513        C  0.29863151  0.96482985  0.67892844     0.36000
C514        C  0.45488625  0.04741718  0.62576115     0.36700
N515        N  0.13165519  0.08758429  0.62455738    -0.44100
N516        N  0.36492274  0.91279138  0.57795022    -0.44500
N517        N  0.48562789  0.06533525  0.61460026    -0.41900
N518        N  0.26726259  0.94734938  0.68964285    -0.43300
H519        H  0.38247877  0.97208640  0.70481638     0.12800
H520        H  0.37112480  0.03902602  0.60018388     0.09300
H521        H  0.24989122  0.05771613  0.64304546     0.10400
H522        H  0.24629943  0.94164918  0.55819565     0.16200
loop_ 
_geom_bond_atom_site_label_1 
_geom_bond_atom_site_label_2 
_geom_bond_distance 
_geom_bond_site_symmetry_2 
_ccdc_geom_bond_type 
N1            N2   1.319   1_565  A
N1            N7   1.316       .  A
N1          Mn30   2.198       .  S
N2            C9   1.353   1_545  A
N3            N5   1.315       .  A
N3            N4   1.318       .  A
N3          Mn19   2.192       .  S
N4           C10   1.351       .  A
N5            N6   1.321   1_455  A
N5          Mn30   2.208       .  S
N6           C10   1.356   1_655  A
N7            N8   1.321       .  A
N7          Mn19   2.214       .  S
N8            C9   1.356       .  A
C9          C199   1.490       .  S
C10          C98   1.487       .  S
N11          N17   1.315       .  A
N11          N12   1.321   1_455  A
N11         Mn41   2.203       .  S
N12          C20   1.354   1_655  A
N13          N14   1.321       .  A
N13          N15   1.314       .  A
N13        Mn280   2.200       .  S
N14          C21   1.355       .  A
N15          N16   1.321   1_565  A
N15         Mn41   2.207       .  S
N16          C21   1.355   1_545  A
N17          N18   1.323       .  A
N17        Mn280   2.220       .  S
N18          C20   1.357       .  A
Mn19        N274   2.200       .  S
Mn19        N278   2.220       .  S
Mn19       Cl304   2.549       .  S
C20         C151   1.494   1_455  S
C21         C247   1.490       .  S
N22          N23   1.321       .  A
N22          N28   1.315   1_565  A
N22         Mn30   2.204   1_655  S
N23          C31   1.355   1_565  A
N24          N26   1.315   1_655  A
N24          N25   1.322       .  A
N24        Mn303   2.207       .  S
N25          C32   1.356       .  A
N26          N27   1.320       .  A
N26         Mn30   2.207   1_545  S
N27          C32   1.354   1_455  A
N28          N29   1.319       .  A
N28        Mn303   2.201       .  S
N29          C31   1.354       .  A
Mn30       Cl304   2.549       .  S
C31         C170   1.488   1_545  S
C32          C79   1.494   1_655  S
N33          N34   1.319       .  A
N33          N39   1.316   1_455  A
N33         Mn41   2.196   1_545  S
N34          C44   1.352       .  A
N35          N36   1.320       .  A
N35          N37   1.316   1_545  A
N35         Mn42   2.205       .  S
N36          C45   1.353       .  A
N37          N38   1.321       .  A
N37         Mn41   2.202   1_655  S
N38          C45   1.354   1_565  A
N39          N40   1.319       .  A
N39         Mn42   2.198       .  S
N40          C44   1.352   1_655  A
Mn41        Cl43   2.549       .  S
Mn42        N285   2.207   1_554  S
Mn42        N289   2.201   1_554  S
Mn42        Cl43   2.545   1_645  S
Cl43       Mn280   2.549       .  S
Cl43       Mn291   2.549   1_554  S
C44         C127   1.474       .  S
C45         C223   1.485   1_545  S
C46          N47   1.359       .  A
C46          N51   1.363       .  A
C46         C146   1.498       .  S
N47          C48   1.357       .  A
C48          N49   1.357       .  A
C48         C122   1.477       .  S
N49          C50   1.357       .  A
C50          N51   1.362       .  A
C50          C56   1.473   1_655  S
C52          N53   1.358       .  A
C52          N57   1.358       .  A
C52         C103   1.486       .  S
N53          C54   1.357       .  A
C54          N55   1.362       .  A
C54          C74   1.495       .  S
N55          C56   1.362       .  A
C56          N57   1.358       .  A
C58          N59   1.359   1_545  A
C58          N63   1.360       .  A
C58         C242   1.488       .  S
N59          C60   1.360       .  A
C60          N61   1.358       .  A
C60         C218   1.498       .  S
N61          C62   1.358   1_565  A
C62          N63   1.359       .  A
C62          C66   1.470       .  S
C64          N65   1.361       .  A
C64          N69   1.359       .  A
C64         C194   1.482       .  S
N65          C66   1.359       .  A
C66          N67   1.358       .  A
N67          C68   1.357       .  A
C68          N69   1.357       .  A
C68         C175   1.477       .  S
C70          C71   1.409   1_655  A
C70          C75   1.403       .  A
C70          C84   1.444       .  S
C71          C76   1.488       .  S
C71          C72   1.401       .  A
C72          C73   1.402       .  A
C72          H91   1.086       .  S
C73          C74   1.421       .  A
C73          C85   1.444       .  S
C74          C75   1.408   1_455  A
C75          H90   1.085       .  S
C76          C77   1.401       .  A
C76          C81   1.409   1_455  A
C77          C78   1.402       .  A
C77          H92   1.085       .  S
C78          C79   1.418       .  A
C78          C82   1.444       .  S
C79          C80   1.409   1_455  A
C80          C81   1.403       .  A
C80          H93   1.085       .  S
C81          C83   1.444       .  S
C82          N86   1.157       .  T
C83          N87   1.157       .  T
C84          N89   1.157       .  T
C85          N88   1.157       .  T
C94          C95   1.408   1_655  A
C94          C99   1.401       .  A
C94         C108   1.443       .  S
C95         C100   1.482       .  S
C95          C96   1.400       .  A
C96          C97   1.399       .  A
C96         H115   1.085       .  S
C97          C98   1.419       .  A
C97         C109   1.444       .  S
C98          C99   1.407   1_455  A
C99         H114   1.085       .  S
C100        C101   1.402       .  A
C100        C105   1.407   1_455  A
C101        C102   1.403       .  A
C101        H116   1.085       .  S
C102        C103   1.417       .  A
C102        C106   1.444       .  S
C103        C104   1.407   1_455  A
C104        C105   1.397       .  A
C104        H117   1.085       .  S
C105        C107   1.444       .  S
C106        N110   1.158       .  T
C107        N111   1.157       .  T
C108        N113   1.157       .  T
C109        N112   1.157       .  T
C118        C119   1.411   1_655  A
C118        C123   1.399       .  A
C118        C132   1.444       .  S
C119        C124   1.483       .  S
C119        C120   1.403       .  A
C120        C121   1.400       .  A
C120        H139   1.085       .  S
C121        C122   1.413   1_455  A
C121        C133   1.444       .  S
C122        C123   1.403       .  A
C123        H138   1.085       .  S
C124        C125   1.404       .  A
C124        C129   1.410       .  A
C125        C126   1.400       .  A
C125        H140   1.085       .  S
C126        C127   1.411       .  A
C126        C130   1.445       .  S
C127        C128   1.403       .  A
C128        C129   1.398       .  A
C128        H141   1.085   1_455  S
C129        C131   1.444   1_455  S
C130        N134   1.157       .  T
C131        N135   1.157       .  T
C132        N137   1.157       .  T
C133        N136   1.157       .  T
C142        C143   1.410       .  A
C142        C147   1.402       .  A
C142        C156   1.444   1_655  S
C143        C148   1.490       .  S
C143        C144   1.401       .  A
C144        C145   1.403       .  A
C144        H163   1.085       .  S
C145        C146   1.422       .  A
C145        C157   1.444       .  S
C146        C147   1.409       .  A
C147        H162   1.084       .  S
C148        C149   1.402   1_655  A
C148        C153   1.410       .  A
C149        C150   1.403       .  A
C149        H164   1.085       .  S
C150        C151   1.417   1_455  A
C150        C154   1.443       .  S
C151        C152   1.409       .  A
C152        C153   1.404       .  A
C152        H165   1.084       .  S
C153        C155   1.444       .  S
C154        N158   1.157       .  T
C155        N159   1.157       .  T
C156        N161   1.157       .  T
C157        N160   1.157       .  T
C166        C167   1.406   1_545  A
C166        C171   1.398       .  A
C166        C180   1.444       .  S
C167        C172   1.479       .  S
C167        C168   1.400       .  A
C168        C169   1.402       .  A
C168        H187   1.085       .  S
C169        C170   1.418       .  A
C169        C181   1.444       .  S
C170        C171   1.408   1_565  A
C171        H186   1.084       .  S
C172        C173   1.401   1_565  A
C172        C177   1.408       .  A
C173        C174   1.400       .  A
C173        H188   1.085       .  S
C174        C175   1.413       .  A
C174        C178   1.444       .  S
C175        C176   1.404   1_545  A
C176        C177   1.400       .  A
C176        H189   1.085       .  S
C177        C179   1.444       .  S
C178        N182   1.157       .  T
C179        N183   1.157       .  T
C180        N185   1.157       .  T
C181        N184   1.158       .  T
C190        C191   1.412   1_565  A
C190        C195   1.401       .  A
C190        C204   1.444       .  S
C191        C196   1.486       .  S
C191        C192   1.402       .  A
C192        C193   1.400       .  A
C192        H211   1.085       .  S
C193        C194   1.415       .  A
C193        C205   1.444       .  S
C194        C195   1.404   1_545  A
C195        H210   1.085       .  S
C196        C197   1.402   1_545  A
C196        C201   1.409       .  A
C197        C198   1.401       .  A
C197        H212   1.086       .  S
C198        C199   1.417       .  A
C198        C202   1.444       .  S
C199        C200   1.409   1_565  A
C200        C201   1.401       .  A
C200        H213   1.085       .  S
C201        C203   1.444       .  S
C202        N206   1.157       .  T
C203        N207   1.157       .  T
C204        N209   1.157       .  T
C205        N208   1.157       .  T
C214        C215   1.407       .  A
C214        C219   1.399       .  A
C214        C228   1.444       .  S
C215        C220   1.486       .  S
C215        C216   1.401       .  A
C216        C217   1.403       .  A
C216        H235   1.084       .  S
C217        C218   1.422       .  A
C217        C229   1.443       .  S
C218        C219   1.410       .  A
C219        H234   1.083       .  S
C220        C221   1.402   1_565  A
C220        C225   1.410       .  A
C221        C222   1.399       .  A
C221        H236   1.085       .  S
C222        C223   1.416   1_545  A
C222        C226   1.444       .  S
C223        C224   1.406       .  A
C224        C225   1.402       .  A
C224        H237   1.085       .  S
C225        C227   1.444       .  S
C226        N230   1.157       .  T
C227        N231   1.157       .  T
C228        N233   1.157       .  T
C229        N232   1.157       .  T
C238        C239   1.409   1_565  A
C238        C243   1.401       .  A
C238        C252   1.444       .  S
C239        C244   1.485       .  S
C239        C240   1.401       .  A
C240        C241   1.402       .  A
C240        H259   1.085       .  S
C241        C242   1.418       .  A
C241        C253   1.445       .  S
C242        C243   1.406   1_545  A
C243        H258   1.084       .  S
C244        C245   1.401       .  A
C244        C249   1.408   1_545  A
C245        C246   1.402       .  A
C245        H260   1.085       .  S
C246        C247   1.418   1_545  A
C246        C250   1.444       .  S
C247        C248   1.408       .  A
C248        C249   1.401       .  A
C248        H261   1.084       .  S
C249        C251   1.444       .  S
C250        N254   1.158       .  T
C251        N255   1.157       .  T
C252        N257   1.157       .  T
C253        N256   1.157       .  T
N262        N263   1.319   1_565  A
N262        N268   1.316       .  A
N262       Mn291   2.198       .  S
N263        C270   1.353   1_545  A
N264        N266   1.315       .  A
N264        N265   1.318       .  A
N264       Mn280   2.192   1_556  S
N265        C271   1.351       .  A
N266        N267   1.321   1_455  A
N266       Mn291   2.208       .  S
N267        C271   1.356   1_655  A
N268        N269   1.321       .  A
N268       Mn280   2.214   1_556  S
N269        C270   1.356       .  A
C270        C460   1.490       .  S
C271        C359   1.487       .  S
N272        N278   1.315       .  A
N272        N273   1.321   1_455  A
N272       Mn302   2.203       .  S
N273        C281   1.354   1_655  A
N274        N275   1.321       .  A
N274        N276   1.314       .  A
N275        C282   1.355       .  A
N276        N277   1.321   1_565  A
N276       Mn302   2.207       .  S
N277        C282   1.355   1_545  A
N278        N279   1.323       .  A
N279        C281   1.357       .  A
C281        C412   1.494   1_455  S
C282        C508   1.490       .  S
N283        N284   1.321       .  A
N283        N289   1.315   1_565  A
N283       Mn291   2.204   1_655  S
N284        C292   1.355   1_565  A
N285        N287   1.315   1_655  A
N285        N286   1.322       .  A
N286        C293   1.356       .  A
N287        N288   1.320       .  A
N287       Mn291   2.207   1_545  S
N288        C293   1.354   1_455  A
N289        N290   1.319       .  A
N290        C292   1.354       .  A
C292        C431   1.488   1_545  S
C293        C340   1.494   1_655  S
N294        N295   1.319       .  A
N294        N300   1.316   1_455  A
N294       Mn302   2.196   1_545  S
N295        C305   1.352       .  A
N296        N297   1.320       .  A
N296        N298   1.316   1_545  A
N296       Mn303   2.205       .  S
N297        C306   1.353       .  A
N298        N299   1.321       .  A
N298       Mn302   2.202   1_655  S
N299        C306   1.354   1_565  A
N300        N301   1.319       .  A
N300       Mn303   2.198       .  S
N301        C305   1.352   1_655  A
Mn302      Cl304   2.549       .  S
Mn303      Cl304   2.545   1_645  S
C305        C388   1.474       .  S
C306        C484   1.485   1_545  S
C307        N308   1.359       .  A
C307        N312   1.363       .  A
C307        C407   1.498       .  S
N308        C309   1.357       .  A
C309        N310   1.357       .  A
C309        C383   1.477       .  S
N310        C311   1.357       .  A
C311        N312   1.362       .  A
C311        C317   1.473   1_655  S
C313        N314   1.358       .  A
C313        N318   1.358       .  A
C313        C364   1.486       .  S
N314        C315   1.357       .  A
C315        N316   1.362       .  A
C315        C335   1.495       .  S
N316        C317   1.362       .  A
C317        N318   1.358       .  A
C319        N320   1.359   1_545  A
C319        N324   1.360       .  A
C319        C503   1.488       .  S
N320        C321   1.360       .  A
C321        N322   1.358       .  A
C321        C479   1.498       .  S
N322        C323   1.358   1_565  A
C323        N324   1.359       .  A
C323        C327   1.470       .  S
C325        N326   1.361       .  A
C325        N330   1.359       .  A
C325        C455   1.482       .  S
N326        C327   1.359       .  A
C327        N328   1.358       .  A
N328        C329   1.357       .  A
C329        N330   1.357       .  A
C329        C436   1.477       .  S
C331        C332   1.409   1_655  A
C331        C336   1.403       .  A
C331        C345   1.444       .  S
C332        C337   1.488       .  S
C332        C333   1.400       .  A
C333        C334   1.402       .  A
C333        H352   1.086       .  S
C334        C335   1.421       .  A
C334        C346   1.444       .  S
C335        C336   1.408   1_455  A
C336        H351   1.085       .  S
C337        C338   1.401       .  A
C337        C342   1.409   1_455  A
C338        C339   1.402       .  A
C338        H353   1.085       .  S
C339        C340   1.418       .  A
C339        C343   1.444       .  S
C340        C341   1.409   1_455  A
C341        C342   1.403       .  A
C341        H354   1.085       .  S
C342        C344   1.444       .  S
C343        N347   1.157       .  T
C344        N348   1.157       .  T
C345        N350   1.157       .  T
C346        N349   1.157       .  T
C355        C356   1.408   1_655  A
C355        C360   1.401       .  A
C355        C369   1.443       .  S
C356        C361   1.482       .  S
C356        C357   1.400       .  A
C357        C358   1.398       .  A
C357        H376   1.085       .  S
C358        C359   1.419       .  A
C358        C370   1.444       .  S
C359        C360   1.407   1_455  A
C360        H375   1.085       .  S
C361        C362   1.402       .  A
C361        C366   1.407   1_455  A
C362        C363   1.403       .  A
C362        H377   1.085       .  S
C363        C364   1.417       .  A
C363        C367   1.444       .  S
C364        C365   1.407   1_455  A
C365        C366   1.397       .  A
C365        H378   1.085       .  S
C366        C368   1.444       .  S
C367        N371   1.158       .  T
C368        N372   1.157       .  T
C369        N374   1.157       .  T
C370        N373   1.157       .  T
C379        C380   1.411   1_655  A
C379        C384   1.399       .  A
C379        C393   1.444       .  S
C380        C385   1.483       .  S
C380        C381   1.403       .  A
C381        C382   1.400       .  A
C381        H400   1.085       .  S
C382        C383   1.413   1_455  A
C382        C394   1.444       .  S
C383        C384   1.403       .  A
C384        H399   1.085       .  S
C385        C386   1.404       .  A
C385        C390   1.410       .  A
C386        C387   1.400       .  A
C386        H401   1.085       .  S
C387        C388   1.411       .  A
C387        C391   1.445       .  S
C388        C389   1.403       .  A
C389        C390   1.398       .  A
C389        H402   1.085   1_455  S
C390        C392   1.444   1_455  S
C391        N395   1.157       .  T
C392        N396   1.157       .  T
C393        N398   1.157       .  T
C394        N397   1.157       .  T
C403        C404   1.410       .  A
C403        C408   1.402       .  A
C403        C417   1.444   1_655  S
C404        C409   1.490       .  S
C404        C405   1.401       .  A
C405        C406   1.403       .  A
C405        H424   1.085       .  S
C406        C407   1.422       .  A
C406        C418   1.444       .  S
C407        C408   1.409       .  A
C408        H423   1.084       .  S
C409        C410   1.402   1_655  A
C409        C414   1.410       .  A
C410        C411   1.403       .  A
C410        H425   1.085       .  S
C411        C412   1.417   1_455  A
C411        C415   1.443       .  S
C412        C413   1.409       .  A
C413        C414   1.404       .  A
C413        H426   1.084       .  S
C414        C416   1.444       .  S
C415        N419   1.157       .  T
C416        N420   1.157       .  T
C417        N422   1.157       .  T
C418        N421   1.157       .  T
C427        C428   1.406   1_545  A
C427        C432   1.398       .  A
C427        C441   1.444       .  S
C428        C433   1.479       .  S
C428        C429   1.400       .  A
C429        C430   1.402       .  A
C429        H448   1.085       .  S
C430        C431   1.418       .  A
C430        C442   1.444       .  S
C431        C432   1.408   1_565  A
C432        H447   1.084       .  S
C433        C434   1.401   1_565  A
C433        C438   1.408       .  A
C434        C435   1.400       .  A
C434        H449   1.085       .  S
C435        C436   1.413       .  A
C435        C439   1.444       .  S
C436        C437   1.404   1_545  A
C437        C438   1.400       .  A
C437        H450   1.085       .  S
C438        C440   1.444       .  S
C439        N443   1.157       .  T
C440        N444   1.157       .  T
C441        N446   1.157       .  T
C442        N445   1.158       .  T
C451        C452   1.412   1_565  A
C451        C456   1.401       .  A
C451        C465   1.444       .  S
C452        C457   1.486       .  S
C452        C453   1.402       .  A
C453        C454   1.400       .  A
C453        H472   1.085       .  S
C454        C455   1.415       .  A
C454        C466   1.444       .  S
C455        C456   1.404   1_545  A
C456        H471   1.085       .  S
C457        C458   1.402   1_545  A
C457        C462   1.409       .  A
C458        C459   1.401       .  A
C458        H473   1.086       .  S
C459        C460   1.417       .  A
C459        C463   1.444       .  S
C460        C461   1.409   1_565  A
C461        C462   1.401       .  A
C461        H474   1.085       .  S
C462        C464   1.444       .  S
C463        N467   1.157       .  T
C464        N468   1.157       .  T
C465        N470   1.157       .  T
C466        N469   1.157       .  T
C475        C476   1.407       .  A
C475        C480   1.399       .  A
C475        C489   1.444       .  S
C476        C481   1.486       .  S
C476        C477   1.401       .  A
C477        C478   1.403       .  A
C477        H496   1.084       .  S
C478        C479   1.422       .  A
C478        C490   1.443       .  S
C479        C480   1.410       .  A
C480        H495   1.083       .  S
C481        C482   1.402   1_565  A
C481        C486   1.410       .  A
C482        C483   1.399       .  A
C482        H497   1.085       .  S
C483        C484   1.416   1_545  A
C483        C487   1.444       .  S
C484        C485   1.406       .  A
C485        C486   1.402       .  A
C485        H498   1.085       .  S
C486        C488   1.444       .  S
C487        N491   1.157       .  T
C488        N492   1.157       .  T
C489        N494   1.157       .  T
C490        N493   1.157       .  T
C499        C500   1.409   1_565  A
C499        C504   1.401       .  A
C499        C513   1.444       .  S
C500        C505   1.485       .  S
C500        C501   1.401       .  A
C501        C502   1.402       .  A
C501        H520   1.085       .  S
C502        C503   1.418       .  A
C502        C514   1.445       .  S
C503        C504   1.406   1_545  A
C504        H519   1.084       .  S
C505        C506   1.401       .  A
C505        C510   1.408   1_545  A
C506        C507   1.402       .  A
C506        H521   1.085       .  S
C507        C508   1.418   1_545  A
C507        C511   1.444       .  S
C508        C509   1.408       .  A
C509        C510   1.401       .  A
C509        H522   1.084       .  S
C510        C512   1.444       .  S
C511        N515   1.158       .  T
C512        N516   1.157       .  T
C513        N518   1.157       .  T
C514        N517   1.157       .  T
