geometry optimzed in LAMMPS
_audit_creation_date              2020-12-01 
_audit_creation_method            'lammps2cif' 
_symmetry_space_group_name_H-M    'P1' 
_symmetry_Int_Tables_number       1 
_symmetry_cell_setting            triclinic 
loop_ 
_symmetry_equiv_pos_as_xyz 
  x,y,z 
_cell_length_a                    41.24944662 
_cell_length_b                    41.059394031107956 
_cell_length_c                    30.77368513976355 
_cell_angle_alpha                 110.81021538385102 
_cell_angle_beta                  71.82334903026776 
_cell_angle_gamma                 128.4401050385102 
loop_ 
_atom_site_label 
_atom_site_type_symbol 
_atom_site_fract_x 
_atom_site_fract_y 
_atom_site_fract_z 
_atom_site_charge 
C1          C  0.35183928  0.15200630  0.99639206     0.80300
N2          N  0.31064611  0.13088522  0.99372723    -0.78000
C3          C  0.29503604  0.15197206  0.99434514     0.82700
N4          N  0.32147158  0.19460511  0.99698302    -0.78000
C5          C  0.36275655  0.21631525  0.99932064     0.82800
N6          N  0.37800270  0.19472516  0.99846857    -0.79700
C7          C  0.34849041  0.14833284  0.49285863     0.80300
N8          N  0.30597796  0.12386419  0.49728538    -0.78000
C9          C  0.28569998  0.14098497  0.49960402     0.82700
N10         N  0.30846487  0.18228419  0.49657274    -0.78000
C11         C  0.35074632  0.20699404  0.49195846     0.82800
N12         N  0.37046627  0.18959112  0.48993189    -0.79700
C13         C  0.15075725  0.33248435  0.78309699     0.80300
N14         N  0.19197217  0.35298564  0.78494763    -0.78000
C15         C  0.20758754  0.33061287  0.77953760     0.82700
N16         N  0.18140257  0.28764825  0.77265800    -0.78000
C17         C  0.14024499  0.26671176  0.77097632     0.82800
N18         N  0.12490448  0.28933063  0.77663443    -0.79700
C19         C  0.15503280  0.33490995  0.27200169     0.80300
N20         N  0.19723300  0.36033349  0.27106515    -0.78000
C21         C  0.21774291  0.34416699  0.27075703     0.82700
N22         N  0.19549962  0.30262585  0.27266613    -0.78000
C23         C  0.15330181  0.27693056  0.27429025     0.82800
N24         N  0.13339151  0.29350045  0.27410644    -0.79700
O25         O  0.12787793  0.08271476  0.92011866    -0.75200
O26         O  0.10184511  0.51691357  0.93027195    -0.54200
C27         C  0.13146333  0.06216845  0.93943825     0.78500
O28         O  0.43874831  0.05946866  0.98589845    -0.59900
O29         O  0.42904723  0.04459171  0.91028937    -0.52900
C30         C  0.42509950  0.06043632  0.95426936     0.70500
O31         O  0.49182712  0.02099826  0.05148659    -0.74400
O32         O  0.02615053  0.48245135  0.99430984    -0.55000
C33         C  0.01006902  0.49932337  0.02848780     0.76500
O34         O  0.07824334  0.10943411  0.83491820    -0.59600
O35         O  0.01261843  0.07781163  0.81992796    -0.52700
C36         C  0.05187707  0.10744346  0.81833406     0.73100
Zr37       Zr  0.07815989  0.07118737  0.87995619     2.54700
O38         O  0.10586314  0.14253918  0.92878810    -0.80100
O39         O  0.14314162  0.09754696  0.82696466    -0.93500
Zr40       Zr  0.47363597  0.02925631  0.98911281     2.64700
O41         O  0.01206665  0.09881703  0.02262840    -0.98500
O42         O  0.41673294  0.50416526  0.02999444    -0.80600
O43         O  0.04333236  0.04072661  0.94687103    -0.83900
O44         O  0.01243538  0.06053679  0.90766841    -2.18600
O45         O  0.01283743  0.46027334  0.71788504    -0.67300
O46         O  0.46773059  0.99649396  0.77816294    -0.51900
C47         C  0.49573345  0.48073409  0.72657022     0.71500
O48         O  0.42734837  0.37284464  0.92923200    -0.60200
O49         O  0.49211719  0.40666312  0.94866182    -0.52200
C50         C  0.45332940  0.37543506  0.94728037     0.73300
O51         O  0.37500220  0.40180430  0.85193225    -0.71600
O52         O  0.40092928  0.46001166  0.82544721    -0.50300
C53         C  0.37185467  0.42185873  0.83124059     0.74700
O54         O  0.06208131  0.42167010  0.78931600    -0.66900
O55         O  0.06694930  0.43382800  0.86614445    -0.54100
C56         C  0.07339196  0.41953429  0.82226429     0.73000
Zr57       Zr  0.02787383  0.45113091  0.78214371     2.77500
O58         O  0.49384451  0.38528106  0.74597153    -0.98300
O59         O  0.09286086  0.48250907  0.72977949    -0.78500
Zr60       Zr  0.42663129  0.41394277  0.88936484     2.70100
O61         O  0.39861897  0.34380788  0.83743395    -0.79700
O62         O  0.36473275  0.39007746  0.94710730    -0.98800
Zr63       Zr  0.03121162  0.46676788  0.91041699     2.21500
Zr64       Zr  0.46300566  0.01026671  0.86235424     2.11100
O65         O  0.46124604  0.44330572  0.82175151    -2.47500
O66         O  0.49252590  0.42499164  0.86306819    -0.79500
O67         O  0.03727947  0.02397400  0.81763377    -0.71700
O68         O  0.46723642  0.46205041  0.95187778    -2.32700
O69         O  0.06902482  0.00461160  0.85604278    -2.28900
O70         O  0.43581099  0.48050867  0.91183142    -0.73500
H71         H  0.01600837  0.08738912  0.91499965     0.78500
H72         H  0.45412863  0.44947902  0.97897269     0.79600
H73         H  0.44457856  0.42499821  0.79620938     0.81800
H74         H  0.09577530  0.00870879  0.84711635     0.79400
H75         H  0.40484018  0.47380325  0.02623321     0.42500
H76         H  0.35161104  0.40273860  0.94434414     0.41400
H77         H  0.37160138  0.32460073  0.85462631     0.41100
H78         H  0.47086272  0.36642557  0.76707042     0.39000
H79         H  0.08669989  0.96061673  0.71619562     0.42200
H80         H  0.15167046  0.07899371  0.82421098     0.37000
H81         H  0.10235425  0.13927238  0.96063657     0.43100
H82         H  0.99285517  0.09623902  0.05217501     0.39500
H83         H  0.98839653  0.36173683  0.74728254     0.44400
H84         H  0.16375017  0.12551184  0.84514244     0.43100
H85         H  0.51636977  0.11953241  0.01893786     0.43300
H86         H  0.34554633  0.35918728  0.93445506     0.43600
O87         O  0.12051906  0.07320402  0.43746769    -0.75200
O88         O  0.09483101  0.50435550  0.43534613    -0.54200
C89         C  0.12091281  0.04805070  0.45271776     0.78500
O90         O  0.43599016  0.05656747  0.48441041    -0.59900
O91         O  0.44421371  0.05880111  0.40845893    -0.52900
C92         C  0.43177568  0.06658331  0.45233441     0.70500
O93         O  0.47629723  0.00759323  0.55152718    -0.74400
O94         O  0.01621991  0.46742469  0.49190961    -0.55000
C95         C  0.99918558  0.48332126  0.52622566     0.76500
O96         O  0.08809766  0.11696403  0.35241255    -0.59600
O97         O  0.02736335  0.08968594  0.32792003    -0.52700
C98         C  0.06626524  0.11868012  0.33230558     0.73100
Zr99       Zr  0.07895308  0.06950425  0.39218519     2.54700
O100        O  0.10751165  0.13832558  0.44695978    -0.80100
O101        O  0.14576819  0.09388857  0.34285510    -0.93500
Zr102      Zr  0.46839683  0.02434693  0.48844650     2.64700
O103        O  0.99958444  0.08598241  0.52856588    -0.98500
O104        O  0.40638982  0.49197235  0.52737649    -0.80600
O105        O  0.03553824  0.03068529  0.45200727    -0.83900
O106        O  0.01349993  0.05994800  0.41346868    -2.18600
O107        O  0.02674256  0.47748136  0.21855750    -0.67300
O108        O  0.48882783  0.01478319  0.27739305    -0.51900
C109        C  0.51035908  0.50410915  0.23091806     0.71500
O110        O  0.41679999  0.36683137  0.41256002    -0.60200
O111        O  0.47675326  0.39511960  0.43971779    -0.52200
C112        C  0.43821893  0.36546878  0.43380748     0.73300
O113        O  0.38162380  0.41457793  0.33672135    -0.71600
O114        O  0.41103181  0.47960756  0.32344521    -0.50300
C115        C  0.38133267  0.43989677  0.32169906     0.74700
O116        O  0.06698155  0.42632308  0.28362340    -0.66900
O117        O  0.05865081  0.42277438  0.35922437    -0.54100
C118        C  0.07081774  0.41543794  0.31514721     0.73000
Zr119      Zr  0.03554782  0.45983278  0.28077003     2.77500
O120        O  0.50571774  0.40305927  0.23515139    -0.97700
O121        O  0.10372443  0.49446165  0.23450390    -0.78500
Zr122      Zr  0.42588867  0.41567394  0.37492566     2.70100
O123        O  0.40813899  0.35358681  0.31089616    -0.79700
O124        O  0.35558587  0.37926015  0.41646439    -0.98800
Zr125      Zr  0.02668333  0.45923250  0.40805022     2.21500
Zr126      Zr  0.47681512  0.02281222  0.36139620     2.11100
O127        O  0.46843873  0.45575297  0.31618294    -2.47500
O128        O  0.49155354  0.42607465  0.35312965    -0.79500
O129        O  0.04554573  0.03068275  0.32362230    -0.71700
O130        O  0.45881094  0.45435172  0.44406779    -2.32700
O131        O  0.06859769  0.00235487  0.36226754    -2.28900
O132        O  0.43568724  0.48265151  0.40723971    -0.73500
H133        H  0.01752610  0.08721503  0.42350572     0.78500
H134        H  0.44240559  0.43834157  0.46839580     0.79600
H135        H  0.45452941  0.44166127  0.28846723     0.81800
H136        H  0.09507027  0.00611301  0.35599771     0.79400
H137        H  0.38820103  0.46219194  0.51042643     0.42500
H138        H  0.34788188  0.39950155  0.42519183     0.41400
H139        H  0.37745946  0.33667836  0.31232848     0.41100
H140        H  0.48038326  0.39795049  0.22954601     0.39000
H141        H  0.12125205  0.00284197  0.26636298     0.42200
H142        H  0.15714657  0.08135609  0.35005063     0.37000
H143        H  0.08833460  0.14610803  0.45020724     0.43100
H144        H  0.97755658  0.08068510  0.55570654     0.39500
H145        H  0.02844953  0.39899230  0.19543614     0.44400
H146        H  0.16398698  0.12473973  0.35641409     0.43100
H147        H  0.47846661  0.09051013  0.56863431     0.43300
H148        H  0.33768157  0.35582335  0.39215499     0.43600
C149        C  0.49539821  0.48063146  0.67824021    -0.05400
C150        C  0.46970037  0.48941863  0.67104366    -0.32900
C151        C  0.47029847  0.49239748  0.62685705     0.36400
C152        C  0.99790648  0.48136640  0.57411978    -0.05800
C153        C  0.00331819  0.45252402  0.57980590    -0.32800
C154        C  0.00175812  0.44948779  0.62444012     0.36300
H155        H  0.44893246  0.49425825  0.69990616     0.16700
O156        O  0.47637380  0.04211815  0.64130616    -0.60200
H157        H  0.00833469  0.43174290  0.54951479     0.16700
O158        O  0.00688331  0.42064236  0.62811136    -0.60300
H159        H  0.97857129  0.39362942  0.62816360     0.43700
H160        H  0.50515621  0.06821419  0.63872989     0.43600
C161        C  0.51207846  0.50717421  0.18353376    -0.05400
C162        C  0.54396305  0.50856238  0.14821536    -0.32900
C163        C  0.54569636  0.51033564  0.10287318     0.36400
C164        C  0.01232546  0.50089977  0.07659703    -0.05800
C165        C  0.00292866  0.02830995  0.12825179    -0.32800
C166        C  0.00293949  0.02774350  0.17348575     0.36300
H167        H  0.56780881  0.50837812  0.15574992     0.16700
O168        O  0.57757966  0.51189758  0.06965154    -0.60200
H169        H  0.99607484  0.04859167  0.12430815     0.16700
O170        O  0.99521724  0.05369176  0.21089264    -0.60300
H171        H  0.96441388  0.03805004  0.21658804     0.43700
H172        H  0.59993492  0.54265942  0.07128598     0.43600
C173        C  0.12937872  0.23332045  0.28278413    -0.05400
C174        C  0.15135103  0.21767482  0.28332803    -0.32900
C175        C  0.13113794  0.18021151  0.29851400     0.36400
C176        C  0.08777186  0.15683177  0.31294150    -0.05800
C177        C  0.06518964  0.17071430  0.30942397    -0.32800
C178        C  0.08548897  0.20847252  0.29450351     0.36300
H179        H  0.18479226  0.23521770  0.27340786     0.16700
O180        O  0.15416140  0.16651735  0.29854271    -0.60200
H181        H  0.03177650  0.15301287  0.31977568     0.16700
O182        O  0.06215754  0.22155085  0.29375950    -0.60300
H183        H  0.05182565  0.20683956  0.26270635     0.43700
H184        H  0.16819591  0.18410231  0.32727241     0.43600
C185        C  0.26296398  0.37237553  0.27516632    -0.05400
C186        C  0.28118394  0.41461552  0.30132101    -0.32900
C187        C  0.32145847  0.43876586  0.31398641     0.36400
C188        C  0.34375433  0.42049494  0.30070476    -0.05800
C189        C  0.32699786  0.37985334  0.27121140    -0.32800
C190        C  0.28708405  0.35588318  0.25836387     0.36300
H191        H  0.26324942  0.42800025  0.31453445     0.16700
O192        O  0.33694731  0.47839170  0.34290516    -0.60200
H193        H  0.34427635  0.36579659  0.25970128     0.16700
O194        O  0.27166566  0.31605922  0.22985211    -0.60300
H195        H  0.26421444  0.29758556  0.25008697     0.43700
H196        H  0.35168381  0.49832040  0.32159273     0.43600
C197        C  0.09063741  0.39269658  0.29984138    -0.05400
C198        C  0.12960552  0.40943341  0.27220908    -0.32900
C199        C  0.15048556  0.39009490  0.26119265     0.36400
C200        C  0.13213792  0.35333184  0.27764571    -0.05800
C201        C  0.09196473  0.33531935  0.30282375    -0.32800
C202        C  0.07148320  0.35497339  0.31436387     0.36300
H203        H  0.14444534  0.43829691  0.26045613     0.16700
O204        O  0.18895604  0.40772104  0.23497773    -0.60200
H205        H  0.07694307  0.30683514  0.31542720     0.16700
O206        O  0.03243681  0.33679299  0.33936436    -0.60300
H207        H  0.03718163  0.34593674  0.37255406     0.43700
H208        H  0.18328179  0.39311233  0.20203460     0.43600
C209        C  0.06854425  0.14267062  0.79698267    -0.05400
C210        C  0.10553343  0.15660512  0.76591502    -0.32900
C211        C  0.12705688  0.19520726  0.75276971     0.36400
C212        C  0.11213379  0.22100254  0.77178572    -0.05800
C213        C  0.07295140  0.20496529  0.79910192    -0.32800
C214        C  0.05120340  0.16603468  0.81192539     0.36300
H215        H  0.11877107  0.13843092  0.75355309     0.16700
O216        O  0.16405986  0.20871536  0.72380288    -0.60200
H217        H  0.06081396  0.22417584  0.81392337     0.16700
O218        O  0.01496064  0.15296676  0.84224225    -0.60300
H219        H  0.02384855  0.16731152  0.87403094     0.43700
H220        H  0.15686036  0.20079070  0.69205775     0.43600
C221        C  0.33181082  0.39869733  0.81284834    -0.05400
C222        C  0.30458562  0.35426254  0.80751325    -0.32900
C223        C  0.26513638  0.33135839  0.79405968     0.36400
C224        C  0.25146637  0.35293424  0.78662297    -0.05800
C225        C  0.27956941  0.39706396  0.78933355    -0.32800
C226        C  0.31957613  0.41979111  0.80158152     0.36300
H227        H  0.31354684  0.33693302  0.81449834     0.16700
O228        O  0.23960488  0.28817576  0.79089823    -0.60200
H229        H  0.27031935  0.41434718  0.78285587     0.16700
O230        O  0.34559319  0.46285712  0.80436745    -0.60300
H231        H  0.36056889  0.46629080  0.77233939     0.43700
H232        H  0.24775455  0.27580384  0.75906693     0.43600
C233        C  0.13335853  0.35675717  0.79095710    -0.05400
C234        C  0.09980036  0.33918674  0.76746170    -0.32900
C235        C  0.08093599  0.36010615  0.77610046     0.36400
C236        C  0.09512581  0.39887157  0.80927199    -0.05800
C237        C  0.12884398  0.41666017  0.83260030    -0.32800
C238        C  0.14838189  0.39626077  0.82318005     0.36300
H239        H  0.08793691  0.30891787  0.74250043     0.16700
O240        O  0.04773743  0.34164088  0.75314235    -0.60200
H241        H  0.13992747  0.44639712  0.85845436     0.16700
O242        O  0.18042510  0.41395436  0.84769035    -0.60300
H243        H  0.20567569  0.43562630  0.83084658     0.43700
H244        H  0.02263552  0.32461568  0.77419454     0.43600
C245        C  0.37110518  0.12919184  0.48516573    -0.05400
C246        C  0.35758368  0.09979500  0.51108184    -0.32900
C247        C  0.37824781  0.08051283  0.50253364     0.36400
C248        C  0.41176382  0.08925096  0.46627723    -0.05800
C249        C  0.42551754  0.11911151  0.44106308    -0.32800
C250        C  0.40600377  0.13946585  0.45066118     0.36300
H251        H  0.33101404  0.09181557  0.53797937     0.16700
O252        O  0.36406110  0.05159454  0.52804996    -0.60200
H253        H  0.45148320  0.12659367  0.41336581     0.16700
O254        O  0.41962452  0.16732245  0.42391171    -0.60300
H255        H  0.44761889  0.19230038  0.43270354     0.43700
H256        H  0.37834221  0.06883069  0.55662889     0.43600
C257        C  0.37450983  0.25038662  0.48287221    -0.05400
C258        C  0.35229856  0.26469819  0.47923629    -0.32900
C259        C  0.37271390  0.30252784  0.46483659     0.36400
C260        C  0.41645766  0.32721189  0.45317193    -0.05800
C261        C  0.43909957  0.31472525  0.45995089    -0.32800
C262        C  0.41859328  0.27663662  0.47439660     0.36300
H263        H  0.31859565  0.24603585  0.48649115     0.16700
O264        O  0.34927990  0.31476107  0.46199269    -0.60200
H265        H  0.47280232  0.33380536  0.45262040     0.16700
O266        O  0.44204550  0.26547804  0.47985904    -0.60300
H267        H  0.45393734  0.25794877  0.44771198     0.43700
H268        H  0.35134757  0.33590323  0.49156324     0.43600
C269        C  0.15849199  0.06764452  0.47422327    -0.05400
C270        C  0.17821328  0.11015781  0.49910039    -0.32900
C271        C  0.21817823  0.13319847  0.51134895     0.36400
C272        C  0.23987338  0.11414181  0.49804329    -0.05800
C273        C  0.21860909  0.07037752  0.47706597    -0.32800
C274        C  0.17819157  0.04713284  0.46509042     0.36300
H275        H  0.16325876  0.12629682  0.50735263     0.16700
O276        O  0.23660830  0.17516468  0.53403784    -0.60200
H277        H  0.23433726  0.05482049  0.46686266     0.16700
O278        O  0.15962964  0.00538781  0.44151212    -0.60300
H279        H  0.16805078  0.00625594  0.40780636     0.43700
H280        H  0.22809280  0.17484008  0.56786524     0.43600
C281        C  0.36865822  0.12746300  0.99006602    -0.05400
C282        C  0.35121166  0.08732361  0.95940383    -0.32900
C283        C  0.36888415  0.06491451  0.94823589     0.36400
C284        C  0.40387611  0.08190272  0.96895273    -0.05800
C285        C  0.42008855  0.12103216  0.00157043    -0.32800
C286        C  0.40291452  0.14398637  0.01192608     0.36300
H287        H  0.32472798  0.07390934  0.94239411     0.16700
O288        O  0.35148353  0.02617386  0.91729886    -0.60200
H289        H  0.44702801  0.13453898  0.01777900     0.16700
O290        O  0.42006166  0.18261164  0.04302300    -0.60300
H291        H  0.40463470  0.17597552  0.07410016     0.43700
H292        H  0.35991045  0.03287710  0.88601853     0.43600
C293        C  0.43593510  0.33975125  0.96859089    -0.05400
C294        C  0.39818089  0.32569411  0.99830749    -0.32900
C295        C  0.37586970  0.28718133  0.01207511     0.36400
C296        C  0.39091474  0.26154724  0.99552043    -0.05800
C297        C  0.43060688  0.27745398  0.96912195    -0.32800
C298        C  0.45324907  0.31651473  0.95581744     0.36300
H299        H  0.38505782  0.34390877  0.00943465     0.16700
O300        O  0.33894008  0.27444049  0.04111954    -0.60200
H301        H  0.44281931  0.25832372  0.95604931     0.16700
O302        O  0.49012341  0.32952104  0.92671812    -0.60300
H303        H  0.51195935  0.34681090  0.94791621     0.43700
H304        H  0.31867083  0.26578189  0.02147565     0.43600
C305        C  0.25104449  0.12854437  0.98609914    -0.05400
C306        C  0.23829902  0.15117936  0.97986098    -0.32900
C307        C  0.19934389  0.13022230  0.96604087     0.36400
C308        C  0.17150005  0.08534407  0.95830031    -0.05800
C309        C  0.18307978  0.06276646  0.96726903    -0.32800
C310        C  0.22227690  0.08389149  0.98116488     0.36300
H311        H  0.25903463  0.18549629  0.98436612     0.16700
O312        O  0.18880268  0.15426150  0.96070433    -0.60200
H313        H  0.16219568  0.02839933  0.96222765     0.16700
O314        O  0.23240165  0.06022563  0.98829657    -0.60300
H315        H  0.22143544  0.05760890  0.02139780     0.43700
H316        H  0.20348190  0.16181010  0.92979457     0.43600
C317        C  0.35120582  0.64511914  0.98307123     0.80300
N318        N  0.31033107  0.62288594  0.97774926    -0.78000
C319        C  0.29348781  0.64351492  0.98081523     0.82700
N320        N  0.31828035  0.68659330  0.98853836    -0.78000
C321        C  0.35905898  0.70923626  0.99364481     0.82800
N322        N  0.37559436  0.68830599  0.99036384    -0.79700
C323        C  0.34748151  0.64472780  0.48934644     0.80300
N324        N  0.30517188  0.61999497  0.49137273    -0.78000
C325        C  0.28479274  0.63769338  0.49672653     0.82700
N326        N  0.30733996  0.68015037  0.49951285    -0.78000
C327        C  0.34949406  0.70532741  0.49749640     0.82800
N328        N  0.36941146  0.68720603  0.49195451    -0.79700
C329        C  0.14290952  0.82965701  0.78909006     0.80300
N330        N  0.18310697  0.85128216  0.79634326    -0.78000
C331        C  0.19957901  0.83022981  0.79253639     0.82700
N332        N  0.17547386  0.78720154  0.78100130    -0.78000
C333        C  0.13539093  0.76480642  0.77315838     0.82800
N334        N  0.11884983  0.78622429  0.77784470    -0.79700
C335        C  0.15451550  0.83912776  0.28404987     0.80300
N336        N  0.19673813  0.86366448  0.28273598    -0.78000
C337        C  0.21646314  0.84589195  0.27999978     0.82700
N338        N  0.19341321  0.80372606  0.27936532    -0.78000
C339        C  0.15135459  0.77906395  0.28109411     0.82800
N340        N  0.13212655  0.79712175  0.28378367    -0.79700
O341        O  0.12671361  0.57625100  0.90697030    -0.75200
O342        O  0.10300179  0.02315734  0.94283202    -0.54200
C343        C  0.13042025  0.55559450  0.92604187     0.78500
O344        O  0.44361092  0.55825162  0.96800152    -0.59900
O345        O  0.43737956  0.54525761  0.89141747    -0.52900
C346        C  0.43157305  0.55993012  0.93548254     0.70500
O347        O  0.49521163  0.52277454  0.03775274    -0.74400
O348        O  0.02694816  0.98752353  0.00626212    -0.55000
C349        C  0.01030355  0.00343553  0.04100091     0.76500
O350        O  0.07445907  0.60346151  0.82559997    -0.59600
O351        O  0.00976309  0.56989030  0.80642390    -0.52700
C352        C  0.04858738  0.60080830  0.80725042     0.73100
Zr353      Zr  0.07580908  0.56494530  0.86874872     2.54700
O354        O  0.10057557  0.63413986  0.92191739    -0.80100
O355        O  0.14103329  0.59546029  0.81650342    -0.93500
Zr356      Zr  0.47886768  0.52954638  0.97274945     2.64700
O357        O  0.00440734  0.58972179  0.00973026    -0.98500
O358        O  0.41340737  0.00632046  0.04899428    -0.80600
O359        O  0.04049074  0.53362921  0.93491965    -0.83900
O360        O  0.00911728  0.55217343  0.89394265    -2.18600
O361        O  0.01103308  0.96724283  0.73225579    -0.67300
O362        O  0.47803282  0.49620269  0.76037245    -0.51900
C363        C  0.48430604  0.98028399  0.74349316     0.71500
O364        O  0.42046312  0.87244357  0.94372647    -0.60200
O365        O  0.48616880  0.90354631  0.95791818    -0.52200
C366        C  0.44703099  0.87345607  0.95852905     0.73300
O367        O  0.36526831  0.90373100  0.87340800    -0.71600
O368        O  0.39135412  0.96095466  0.84509045    -0.50300
C369        C  0.36174785  0.92351846  0.85276439     0.74700
O370        O  0.05699299  0.92307363  0.79981272    -0.66900
O371        O  0.06415589  0.93652578  0.87605418    -0.54100
C372        C  0.06843245  0.92048346  0.83221048     0.73000
Zr373      Zr  0.02619890  0.95663904  0.79495285     2.77500
O374        O  0.47954868  0.88360922  0.75912707    -0.98300
O375        O  0.09071099  0.98547943  0.74145876    -0.78500
Zr376      Zr  0.41821348  0.91339790  0.90575603     2.70100
O377        O  0.38913017  0.84333739  0.85349862    -0.79700
O378        O  0.35542913  0.88474043  0.96179442    -0.98800
Zr379      Zr  0.03209874  0.97298877  0.92244050     2.21500
Zr380      Zr  0.47185244  0.51088872  0.84458002     2.11100
O381        O  0.45117674  0.94219204  0.83789904    -2.47500
O382        O  0.48313391  0.92247075  0.87608774    -0.79500
O383        O  0.03653508  0.51739052  0.80510145    -0.71700
O384        O  0.46094837  0.96102091  0.96656287    -2.32700
O385        O  0.06869890  0.49943956  0.84472505    -2.28900
O386        O  0.42836816  0.98049435  0.93012916    -0.73500
H387        H  0.01196554  0.57862300  0.90108862     0.78500
H388        H  0.44834777  0.94838815  0.99356619     0.79600
H389        H  0.43362210  0.92424561  0.81310791     0.81800
H390        H  0.09590425  0.50459504  0.83645290     0.79400
H391        H  0.39176636  0.97710206  0.03405547     0.42500
H392        H  0.34570392  0.90281450  0.96721230     0.41400
H393        H  0.39111731  0.84785481  0.82298100     0.41100
H394        H  0.50156767  0.88109389  0.73697890     0.39000
H395        H  0.09497905  0.45844564  0.71166618     0.42200
H396        H  0.13241222  0.58535769  0.78505968     0.37000
H397        H  0.08264476  0.62750044  0.95199767     0.43100
H398        H  0.00926031  0.60813403  0.99125573     0.39500
H399        H  0.98288015  0.86689983  0.75932196     0.44400
H400        H  0.15246152  0.57981354  0.81503507     0.43100
H401        H  0.54629637  0.61372779  0.00820860     0.43300
H402        H  0.33451034  0.85680116  0.94387620     0.43600
O403        O  0.12338816  0.56950318  0.42315728    -0.75200
O404        O  0.09185242  0.00797206  0.44948112    -0.54200
C405        C  0.12372986  0.54445301  0.43869478     0.78500
O406        O  0.43487492  0.55100629  0.47237180    -0.59900
O407        O  0.44552617  0.55745836  0.39764443    -0.52900
C408        C  0.43120689  0.56244302  0.44124323     0.70500
O409        O  0.48211161  0.50640618  0.53660900    -0.74400
O410        O  0.01062881  0.96949749  0.50556707    -0.55000
C411        C  0.99344141  0.98546576  0.53957500     0.76500
O412        O  0.08898476  0.61388885  0.34106347    -0.59600
O413        O  0.02737983  0.58600079  0.31786038    -0.52700
C414        C  0.06611243  0.61541189  0.32250225     0.73100
Zr415      Zr  0.08128833  0.56612736  0.37884531     2.54700
O416        O  0.10923206  0.63409889  0.43507329    -0.80100
O417        O  0.14819631  0.59259608  0.32946297    -0.93500
Zr418      Zr  0.47129234  0.52232229  0.47476738     2.64700
O419        O  0.00643212  0.58433558  0.51444208    -0.98500
O420        O  0.40238044  0.99594508  0.53946879    -0.80600
O421        O  0.03871973  0.52741288  0.43875587    -0.83900
O422        O  0.01575123  0.55644338  0.40085350    -2.18600
O423        O  0.02604582  0.98107652  0.23157668    -0.67300
O424        O  0.49208822  0.51834610  0.26556172    -0.51900
C425        C  0.50737807  0.00057708  0.24315688     0.71500
O426        O  0.41520501  0.86838675  0.42826946    -0.60200
O427        O  0.47492610  0.89717421  0.45628833    -0.52200
C428        C  0.43659075  0.86733627  0.44990583     0.73300
O429        O  0.37830210  0.91447472  0.35222937    -0.71600
O430        O  0.40798810  0.97865961  0.33652107    -0.50300
C431        C  0.37812357  0.93919736  0.33595629     0.74700
O432        O  0.06458225  0.92895471  0.29789975    -0.66900
O433        O  0.05675392  0.92697191  0.37393374    -0.54100
C434        C  0.06881942  0.91891542  0.32996708     0.73000
Zr435      Zr  0.03374038  0.96288926  0.29413375     2.77500
O436        O  0.50068396  0.90080497  0.25266009    -0.97700
O437        O  0.10162284  0.99557754  0.24685463    -0.78500
Zr438      Zr  0.42260950  0.91650029  0.39124456     2.70100
O439        O  0.39715644  0.85095299  0.33113842    -0.79700
O440        O  0.35455875  0.88558309  0.43837473    -0.98800
Zr441      Zr  0.02379182  0.96261609  0.42162365     2.21500
Zr442      Zr  0.47978959  0.52359865  0.34890600     2.11100
O443        O  0.46512829  0.95474183  0.33097151    -2.47500
O444        O  0.48818826  0.92641436  0.36981526    -0.79500
O445        O  0.04707617  0.52740122  0.31074259    -0.71700
O446        O  0.45598377  0.95626691  0.45984462    -2.32700
O447        O  0.07091457  0.49901902  0.34852842    -2.28900
O448        O  0.43252988  0.98355339  0.42115079    -0.73500
H449        H  0.01978408  0.58373492  0.41088870     0.78500
H450        H  0.43944840  0.94045419  0.48433231     0.79600
H451        H  0.45112369  0.93992490  0.30324028     0.81800
H452        H  0.09741812  0.50275871  0.34182122     0.79400
H453        H  0.38944392  0.96501181  0.53268617     0.42500
H454        H  0.34858460  0.90713879  0.44670572     0.41400
H455        H  0.36922542  0.82989934  0.34529082     0.41100
H456        H  0.52435798  0.90400112  0.22849470     0.39000
H457        H  0.09949951  0.47499323  0.20323497     0.42200
H458        H  0.15686889  0.57495075  0.32967344     0.37000
H459        H  0.09715932  0.62634542  0.46605382     0.43100
H460        H  0.00846324  0.60413043  0.50079043     0.39500
H461        H  0.01995062  0.90280401  0.20683997     0.44400
H462        H  0.16774264  0.62111282  0.34780352     0.43100
H463        H  0.52965656  0.59646005  0.53456549     0.43300
H464        H  0.33462617  0.86168230  0.41606727     0.43600
C465        C  0.48375938  0.98058744  0.69558542    -0.05400
C466        C  0.47835485  0.00929351  0.68966696    -0.32900
C467        C  0.48074018  0.01271790  0.64496265     0.36400
C468        C  0.99170858  0.98368182  0.58784163    -0.05800
C469        C  0.00758056  0.96391049  0.59420763    -0.32800
C470        C  0.00756949  0.96244689  0.63891761     0.36300
H471        H  0.47340932  0.03020411  0.71984077     0.16700
O472        O  0.44386533  0.50010884  0.62184151    -0.60200
H473        H  0.02043324  0.94953792  0.56435197     0.16700
O474        O  0.02403938  0.94320437  0.64269151    -0.60300
H475        H  0.00012781  0.91309822  0.64253353     0.43700
H476        H  0.45783235  0.53128106  0.63334993     0.43600
C477        C  0.50925013  0.00312012  0.19519162    -0.05400
C478        C  0.52207818  0.98119989  0.15581569    -0.32900
C479        C  0.52312660  0.98208228  0.11029377     0.36400
C480        C  0.01170354  0.00328078  0.08863681    -0.05800
C481        C  0.98571866  0.50714816  0.11448193    -0.32800
C482        C  0.98433631  0.50484292  0.15937787     0.36300
H483        H  0.53088856  0.96266794  0.16011088     0.16700
O484        O  0.53484450  0.95905235  0.07334374    -0.60200
H485        H  0.96476410  0.51252431  0.10916249     0.16700
O486        O  0.95654505  0.50965954  0.19459464    -0.60300
H487        H  0.93071360  0.48043610  0.19437551     0.43700
H488        H  0.56557608  0.97881601  0.06677417     0.43600
C489        C  0.12692532  0.73447997  0.28597826    -0.05400
C490        C  0.14682786  0.71374575  0.27246647    -0.32900
C491        C  0.12683794  0.67426696  0.28288322     0.36400
C492        C  0.08594585  0.65439234  0.30633586    -0.05800
C493        C  0.06501698  0.67365857  0.31736901    -0.32800
C494        C  0.08521359  0.71354040  0.30777035     0.36300
H495        H  0.17852653  0.72872523  0.25498405     0.16700
O496        O  0.14737613  0.65515796  0.26970671    -0.60200
H497        H  0.03363017  0.65880168  0.33577129     0.16700
O498        O  0.06489679  0.73299591  0.32322922    -0.60300
H499        H  0.04841786  0.72232688  0.29782730     0.43700
H500        H  0.16655442  0.66969391  0.29354015     0.43600
C501        C  0.26139385  0.87270638  0.28560109    -0.05400
C502        C  0.28111229  0.91591708  0.30876292    -0.32900
C503        C  0.32051622  0.93924276  0.32329101     0.36400
C504        C  0.34068771  0.91934784  0.31450755    -0.05800
C505        C  0.32253569  0.87744328  0.28819341    -0.32800
C506        C  0.28334722  0.85410719  0.27388225     0.36300
H507        H  0.26489557  0.93091430  0.31839900     0.16700
O508        O  0.33703817  0.97990561  0.34975955    -0.60200
H509        H  0.33816363  0.86201096  0.28018784     0.16700
O510        O  0.26648965  0.81279625  0.24921913    -0.60300
H511        H  0.25757883  0.79623014  0.27255617     0.43700
H512        H  0.35526693  0.99865481  0.32700846     0.43600
C513        C  0.08935778  0.89676603  0.31566018    -0.05400
C514        C  0.12440736  0.90894142  0.28136788    -0.32900
C515        C  0.14608708  0.89038935  0.27032328     0.36400
C516        C  0.13214373  0.85860564  0.29296217    -0.05800
C517        C  0.09621214  0.84537034  0.32578684    -0.32800
C518        C  0.07523324  0.86452370  0.33766891     0.36300
H519        H  0.13571547  0.93375548  0.26416686     0.16700
O520        O  0.18079217  0.90360190  0.23759290    -0.60200
H521        H  0.08492903  0.82082183  0.34341717     0.16700
O522        O  0.04032647  0.85080457  0.37013260    -0.60300
H523        H  0.05095044  0.86501527  0.40102328     0.43700
H524        H  0.17092933  0.88207828  0.20809846     0.43600
C525        C  0.06580178  0.63679666  0.78653013    -0.05400
C526        C  0.10692933  0.65652292  0.76432496    -0.32900
C527        C  0.12831291  0.69625422  0.75418729     0.36400
C528        C  0.10916485  0.71794158  0.76797163    -0.05800
C529        C  0.06634708  0.69593720  0.78480001    -0.32800
C530        C  0.04449072  0.65529523  0.79380124     0.36300
H531        H  0.12331928  0.64195935  0.75684853     0.16700
O532        O  0.16903410  0.71490330  0.73395545    -0.60200
H533        H  0.05064004  0.71147727  0.79460672     0.16700
O534        O  0.00344014  0.63557566  0.81296577    -0.60300
H535        H  0.00397955  0.64557471  0.84735004     0.43700
H536        H  0.16822007  0.71111256  0.70055406     0.43600
C537        C  0.32082485  0.90046595  0.83612639    -0.05400
C538        C  0.29127772  0.85705338  0.83716143    -0.32900
C539        C  0.25241448  0.83369875  0.82199020     0.36400
C540        C  0.24171085  0.85364613  0.80580244    -0.05800
C541        C  0.27111884  0.89696706  0.80448399    -0.32800
C542        C  0.31052370  0.92021424  0.81884130     0.36300
H543        H  0.29810278  0.84069692  0.84987151     0.16700
O544        O  0.22446553  0.79185979  0.82547285    -0.60200
H545        H  0.26362816  0.91297059  0.79215479     0.16700
O546        O  0.33814123  0.96237706  0.81680842    -0.60300
H547        H  0.35168546  0.96254081  0.78392490     0.43700
H548        H  0.23267406  0.77582385  0.79743610     0.43600
C549        C  0.12462741  0.85342444  0.79861575    -0.05400
C550        C  0.09391746  0.83911960  0.77246568    -0.32900
C551        C  0.07585209  0.86112836  0.78214797     0.36400
C552        C  0.08824773  0.89773135  0.81872224    -0.05800
C553        C  0.11885480  0.91183319  0.84476906    -0.32800
C554        C  0.13717199  0.89029121  0.83487410     0.36300
H555        H  0.08385869  0.81080818  0.74456781     0.16700
O556        O  0.04538183  0.84594374  0.75658525    -0.60200
H557        H  0.12858982  0.93971594  0.87325447     0.16700
O558        O  0.16560600  0.90421811  0.86274288    -0.60300
H559        H  0.19227450  0.92856197  0.85088801     0.43700
H560        H  0.01892629  0.82496211  0.77297409     0.43600
C561        C  0.36981612  0.62489053  0.47913442    -0.05400
C562        C  0.35355651  0.59105923  0.49958005    -0.32900
C563        C  0.37383958  0.57109707  0.48893551     0.36400
C564        C  0.41007850  0.58401845  0.45617001    -0.05800
C565        C  0.42610122  0.61768415  0.43574141    -0.32800
C566        C  0.40670086  0.63844141  0.44738716     0.36300
H567        H  0.32512937  0.58015910  0.52392250     0.16700
O568        O  0.35682399  0.53766615  0.50879635    -0.60200
H569        H  0.45396215  0.62806605  0.41048949     0.16700
O570        O  0.42271281  0.67029017  0.42536622    -0.60300
H571        H  0.44865249  0.69487527  0.43929615     0.43700
H572        H  0.36737175  0.55093802  0.53965950     0.43600
C573        C  0.37304226  0.75031193  0.49378804    -0.05400
C574        C  0.35070309  0.76476197  0.49090916    -0.32900
C575        C  0.37110767  0.80350721  0.47878727     0.36400
C576        C  0.41496318  0.82902456  0.46887160    -0.05800
C577        C  0.43768255  0.81690970  0.47630701    -0.32800
C578        C  0.41712181  0.77784041  0.48855008     0.36300
H579        H  0.31692714  0.74526220  0.49621668     0.16700
O580        O  0.34752639  0.81546310  0.47563099    -0.60200
H581        H  0.47146704  0.83681485  0.47065444     0.16700
O582        O  0.44043533  0.76685755  0.49480945    -0.60300
H583        H  0.45446689  0.76155272  0.46320933     0.43700
H584        H  0.34896069  0.83618620  0.50539393     0.43600
C585        C  0.16059320  0.56425155  0.46158448    -0.05400
C586        C  0.17867836  0.60612022  0.48816032    -0.32900
C587        C  0.21744046  0.62912000  0.50353333     0.36400
C588        C  0.23965412  0.61072890  0.49149186    -0.05800
C589        C  0.21984765  0.56749497  0.46848590    -0.32800
C590        C  0.18059851  0.54426419  0.45354256     0.36300
H591        H  0.16327800  0.62171233  0.49572282     0.16700
O592        O  0.23414295  0.67035565  0.52827780    -0.60200
H593        H  0.23587663  0.55234965  0.45925998     0.16700
O594        O  0.16351581  0.50308706  0.42847170    -0.60300
H595        H  0.17390755  0.50524438  0.39519209     0.43700
H596        H  0.22461332  0.66842037  0.56165788     0.43600
C597        C  0.37019541  0.62226374  0.97461229    -0.05400
C598        C  0.35468893  0.58324245  0.94199934    -0.32900
C599        C  0.37455437  0.56283118  0.92898564     0.36400
C600        C  0.40965216  0.58052004  0.94981114    -0.05800
C601        C  0.42431259  0.61868198  0.98387457    -0.32800
C602        C  0.40515555  0.63986309  0.99596099     0.36300
H603        H  0.32801678  0.56923524  0.92498407     0.16700
O604        O  0.35920621  0.52535848  0.89604834    -0.60200
H605        H  0.45140455  0.63272356  0.00014168     0.16700
O606        O  0.42114586  0.67787306  0.02816273    -0.60300
H607        H  0.40606730  0.67017541  0.05891607     0.43700
H608        H  0.37107443  0.53409051  0.86554988     0.43600
C609        C  0.43008428  0.83664656  0.97713615    -0.05400
C610        C  0.39066630  0.81918829  0.00366147    -0.32900
C611        C  0.36853205  0.77891460  0.01277223     0.36400
C612        C  0.38584245  0.75536349  0.99522540    -0.05800
C613        C  0.42705939  0.77461637  0.97262818    -0.32800
C614        C  0.44931225  0.81522214  0.96360240     0.36300
H615        H  0.37599502  0.83595184  0.01533240     0.16700
O616        O  0.32950789  0.76233957  0.03782699    -0.60200
H617        H  0.44091918  0.75701431  0.95882593     0.16700
O618        O  0.48775423  0.83153024  0.93730468    -0.60300
H619        H  0.50754496  0.84362898  0.95952259     0.43700
H620        H  0.31119429  0.75515545  0.01647349     0.43600
C621        C  0.25002155  0.61999827  0.97089675    -0.05400
C622        C  0.23669325  0.64323799  0.96759009    -0.32900
C623        C  0.19779302  0.62282101  0.95406681     0.36400
C624        C  0.17068055  0.57796735  0.94364743    -0.05800
C625        C  0.18300061  0.55455575  0.94895755    -0.32800
C626        C  0.22216297  0.57511635  0.96251291     0.36300
H627        H  0.25678787  0.67770095  0.97456422     0.16700
O628        O  0.18637042  0.64727854  0.95209389    -0.60200
H629        H  0.16264923  0.52006460  0.94148980     0.16700
O630        O  0.23305730  0.55083432  0.96625562    -0.60300
H631        H  0.22111777  0.54530587  0.99830153     0.43700
H632        H  0.20071208  0.65641145  0.92187499     0.43600
C633        C  0.85270435  0.14819521  0.98463576     0.80300
N634        N  0.81069279  0.12672491  0.98745311    -0.78000
C635        C  0.79373397  0.14767713  0.99193737     0.82700
N636        N  0.81955036  0.19018096  0.99322982    -0.78000
C637        C  0.86153745  0.21192222  0.99042020     0.82800
N638        N  0.87792828  0.19048594  0.98534184    -0.79700
C639        C  0.84853196  0.14348935  0.48235595     0.80300
N640        N  0.80639519  0.12168220  0.49396361    -0.78000
C641        C  0.78693953  0.14069317  0.50074172     0.82700
N642        N  0.81004773  0.18128184  0.49514691    -0.78000
C643        C  0.85200299  0.20338096  0.48356567     0.82800
N644        N  0.87091821  0.18407123  0.47695653    -0.79700
C645        C  0.64306145  0.32950216  0.79246761     0.80300
N646        N  0.68484326  0.34904435  0.78911699    -0.78000
C647        C  0.70000048  0.32603822  0.78263846     0.82700
N648        N  0.67286870  0.28355016  0.77984927    -0.78000
C649        C  0.63125390  0.26362622  0.78331978     0.82800
N650        N  0.61633856  0.28682258  0.79007438    -0.79700
C651        C  0.65023560  0.33859185  0.28800836     0.80300
N652        N  0.69272860  0.36187225  0.28093862    -0.78000
C653        C  0.71261383  0.34431039  0.27821700     0.82700
N654        N  0.68967470  0.30382877  0.28391424    -0.78000
C655        C  0.64747027  0.28034732  0.29166328     0.82800
N656        N  0.62799909  0.29806137  0.29376917    -0.79700
O657        O  0.62286918  0.08125254  0.93231125    -0.75200
O658        O  0.60504682  0.52563379  0.94344667    -0.54200
C659        C  0.62658173  0.06028145  0.95089140     0.78500
O660        O  0.94099201  0.05658646  0.96861629    -0.59900
O661        O  0.93950420  0.04891530  0.89202819    -0.52900
C662        C  0.93169394  0.06144817  0.93616904     0.70500
O663        O  0.99208958  0.01870093  0.03707432    -0.74400
O664        O  0.52996120  0.49138495  0.00952424    -0.55000
C665        C  0.51367772  0.50844122  0.04325242     0.76500
O666        O  0.57045938  0.10632626  0.84789430    -0.59600
O667        O  0.50377997  0.07752153  0.83947679    -0.52700
C668        C  0.54332474  0.10581051  0.83492632     0.73100
Zr669      Zr  0.57227697  0.06937256  0.89282856     2.54700
O670        O  0.60066302  0.14118798  0.94070879    -0.80100
O671        O  0.63604797  0.09399614  0.83786557    -0.93500
Zr672      Zr  0.97641816  0.02760380  0.97303441     2.64700
O673        O  0.51251891  0.10116701  0.03665488    -0.98500
O674        O  0.90885756  0.48820952  0.01284386    -0.80600
O675        O  0.53935008  0.03996674  0.96030230    -0.83900
O676        O  0.50725849  0.06010560  0.92238869    -2.18600
O677        O  0.51404065  0.46621061  0.73205426    -0.67300
O678        O  0.97524072  0.99739762  0.76155676    -0.51900
C679        C  0.99431697  0.47470655  0.71272405     0.71500
O680        O  0.92568219  0.36595831  0.91580146    -0.60200
O681        O  0.99075876  0.39940812  0.93392946    -0.52200
C682        C  0.95179626  0.36875609  0.93387938     0.73300
O683        O  0.87288819  0.39486717  0.83785862    -0.71600
O684        O  0.89799678  0.45272347  0.81140565    -0.50300
C685        C  0.86897520  0.41483726  0.81795655     0.74700
O686        O  0.55845277  0.42343591  0.80439967    -0.66900
O687        O  0.56720788  0.43898254  0.88063127    -0.54100
C688        C  0.57068322  0.42201703  0.83701679     0.73000
Zr689      Zr  0.52798924  0.45621840  0.79659199     2.77500
O690        O  0.99735391  0.38175723  0.72834619    -0.98300
O691        O  0.59233178  0.48193941  0.74265975    -0.78500
Zr692      Zr  0.92488218  0.40460954  0.87212641     2.70100
O693        O  0.90336228  0.33761730  0.81527814    -0.79700
O694        O  0.85823018  0.36906171  0.92093773    -0.98800
Zr695      Zr  0.53395784  0.47455121  0.92513802     2.21500
Zr696      Zr  0.97066572  0.01153868  0.84553466     2.11100
O697        O  0.96005120  0.43601208  0.80598966    -2.47500
O698        O  0.99158375  0.41736759  0.84682795    -0.79500
O699        O  0.52911833  0.02160546  0.83243302    -0.71700
O700        O  0.96355229  0.45240813  0.93625651    -2.32700
O701        O  0.56206334  0.00230870  0.86914641    -2.28900
O702        O  0.93167924  0.47017743  0.89638015    -0.73500
H703        H  0.51109977  0.08706242  0.92947641     0.78500
H704        H  0.95037797  0.43959344  0.96316062     0.79600
H705        H  0.94374938  0.41798329  0.78011623     0.81800
H706        H  0.58867983  0.00611881  0.85924925     0.79400
H707        H  0.89463002  0.45703499  0.00160003     0.42500
H708        H  0.84989033  0.38892515  0.93142968     0.41400
H709        H  0.92451965  0.33280311  0.81347795     0.41100
H710        H  0.02134293  0.38323361  0.70622644     0.39000
H711        H  0.60215289  0.00652248  0.77157590     0.42200
H712        H  0.64576350  0.07701777  0.83725162     0.37000
H713        H  0.61815244  0.16011581  0.91814242     0.43100
H714        H  0.54075592  0.10833977  0.03391852     0.39500
H715        H  0.47967256  0.38552031  0.72551429     0.44400
H716        H  0.65661208  0.12316997  0.85412268     0.43100
H717        H  0.03590941  0.10291753  0.03090826     0.43300
H718        H  0.83827667  0.34465027  0.89891166     0.43600
O719        O  0.61961860  0.07803553  0.45271463    -0.75200
O720        O  0.59389375  0.50936116  0.44710598    -0.54200
C721        C  0.62003090  0.05277627  0.46774358     0.78500
O722        O  0.93567303  0.04999487  0.46721822    -0.59900
O723        O  0.94529978  0.05383983  0.39165347    -0.52900
C724        C  0.93164784  0.06034259  0.43528247     0.70500
O725        O  0.97793791  0.00293910  0.53450942    -0.74400
O726        O  0.51519199  0.47331819  0.50584607    -0.55000
C727        C  0.49813417  0.48894155  0.54053649     0.76500
O728        O  0.58556480  0.12143423  0.36917798    -0.59600
O729        O  0.52452234  0.09324162  0.34446701    -0.52700
C730        C  0.56322658  0.12270344  0.34933161     0.73100
Zr731      Zr  0.57724282  0.07409740  0.40843073     2.54700
O732        O  0.60462941  0.14270817  0.46338867    -0.80100
O733        O  0.64456683  0.09840727  0.36053214    -0.93500
Zr734      Zr  0.96905244  0.01870184  0.47126662     2.64700
O735        O  0.50177948  0.09168114  0.54522993    -0.98500
O736        O  0.90718573  0.48659705  0.51145051    -0.80600
O737        O  0.53460367  0.03575876  0.46873288    -0.83900
O738        O  0.51184669  0.06438215  0.42957909    -2.18600
O739        O  0.52703159  0.48714348  0.23444333    -0.67300
O740        O  0.99170137  0.01286825  0.26179846    -0.51900
C741        C  0.00956611  0.49398737  0.21498254     0.71500
O742        O  0.91789354  0.36075222  0.39988278    -0.60200
O743        O  0.97820582  0.38889350  0.42606515    -0.52200
C744        C  0.93947427  0.35950581  0.42091681     0.73300
O745        O  0.88117010  0.40688793  0.32397714    -0.71600
O746        O  0.91090928  0.47158711  0.30967431    -0.50300
C747        C  0.88063748  0.43228111  0.30933503     0.74700
O748        O  0.56466726  0.43258695  0.29756425    -0.66900
O749        O  0.55493106  0.42722884  0.37270501    -0.54100
C750        C  0.56729719  0.42031768  0.32867509     0.73000
Zr751      Zr  0.53505122  0.46819188  0.29570326     2.77500
O752        O  0.00585172  0.39344667  0.22195286    -0.97700
O753        O  0.60313193  0.50256311  0.24917897    -0.78500
Zr754      Zr  0.92659962  0.40830124  0.36090942     2.70100
O755        O  0.90736758  0.34446991  0.29911691    -0.79700
O756        O  0.85682304  0.37207702  0.40376871    -0.98800
Zr757      Zr  0.52525681  0.46566575  0.42214891     2.21500
Zr758      Zr  0.97912916  0.01911000  0.34495957     2.11100
O759        O  0.96873402  0.44707771  0.30105222    -2.47500
O760        O  0.99240898  0.41877527  0.33929672    -0.79500
O761        O  0.54355180  0.03502478  0.33994617    -0.71700
O762        O  0.96015099  0.44795715  0.42971146    -2.32700
O763        O  0.56682236  0.00696305  0.37898182    -2.28900
O764        O  0.93637211  0.47522221  0.39228117    -0.73500
H765        H  0.51610053  0.09177506  0.43926559     0.78500
H766        H  0.94383940  0.43235353  0.45438771     0.79600
H767        H  0.95453705  0.43267686  0.27352605     0.81800
H768        H  0.59337623  0.01087693  0.37253006     0.79400
H769        H  0.88552555  0.46491971  0.49019200     0.42500
H770        H  0.84646696  0.38920025  0.40721540     0.41400
H771        H  0.91437502  0.35366352  0.26986613     0.41100
H772        H  0.98473351  0.39152510  0.21037638     0.39000
H773        H  0.61959803  0.01027425  0.28423499     0.42200
H774        H  0.66208602  0.12961195  0.37261351     0.37000
H775        H  0.59217876  0.13549612  0.49462039     0.43100
H776        H  0.51152653  0.11349577  0.52850216     0.39500
H777        H  0.52552393  0.41133752  0.20645680     0.44400
H778        H  0.63960213  0.09484342  0.32916887     0.43100
H779        H  0.02144358  0.08854344  0.53942056     0.43300
H780        H  0.83979197  0.34526664  0.38140556     0.43600
C781        C  0.99481451  0.47567353  0.66471672    -0.05400
C782        C  0.98942659  0.50449217  0.65900732    -0.32900
C783        C  0.99133047  0.50779540  0.61446835     0.36400
C784        C  0.49679735  0.48628858  0.58817469    -0.05800
C785        C  0.52200655  0.47677434  0.59514206    -0.32800
C786        C  0.52137050  0.47374788  0.63938452     0.36300
H787        H  0.98469141  0.52549923  0.68925981     0.16700
O788        O  0.95872293  0.02112664  0.62400978    -0.60200
H789        H  0.54275566  0.47197136  0.56621160     0.16700
O790        O  0.54738013  0.46545119  0.64427108    -0.60300
H791        H  0.53128281  0.43394238  0.63716145     0.43700
H792        H  0.98104838  0.05210378  0.63067774     0.43600
C793        C  0.01049343  0.49684645  0.16764644    -0.05400
C794        C  0.03777872  0.49154794  0.12995031    -0.32900
C795        C  0.03900566  0.49364562  0.08500213     0.36400
C796        C  0.51493122  0.51033036  0.09182646    -0.05800
C797        C  0.49897365  0.02771737  0.14241280    -0.32800
C798        C  0.49789128  0.02679579  0.18789709     0.36300
H799        H  0.05843543  0.48575495  0.13519717     0.16700
O800        O  0.06618437  0.48797959  0.04953843    -0.60200
H801        H  0.48988808  0.04603093  0.13817618     0.16700
O802        O  0.48619511  0.04981318  0.22488774    -0.60300
H803        H  0.45527054  0.03095485  0.22967757     0.43700
H804        H  0.09148405  0.51711167  0.04754304     0.43600
C805        C  0.62392367  0.23754657  0.30203405    -0.05400
C806        C  0.64593427  0.22079444  0.29884889    -0.32900
C807        C  0.62637499  0.18315134  0.31321951     0.36400
C808        C  0.58377047  0.16100099  0.33101396    -0.05800
C809        C  0.56103090  0.17623679  0.33199774    -0.32800
C810        C  0.58063692  0.21405323  0.31760358     0.36300
H811        H  0.67884729  0.23722877  0.28590612     0.16700
O812        O  0.64900868  0.16767550  0.30849940    -0.60200
H813        H  0.52811560  0.15939342  0.34518401     0.16700
O814        O  0.55731729  0.22826668  0.32057907    -0.60300
H815        H  0.54588488  0.21459791  0.29021454     0.43700
H816        H  0.66567161  0.18497405  0.33522062     0.43600
C817        C  0.75868799  0.36990362  0.27540373    -0.05400
C818        C  0.78159235  0.41372628  0.29595046    -0.32900
C819        C  0.82300191  0.43587431  0.30399224     0.36400
C820        C  0.84175464  0.41399259  0.29164486    -0.05800
C821        C  0.82029715  0.37151423  0.26682158    -0.32800
C822        C  0.77925740  0.34950898  0.25856387     0.36300
H823        H  0.76652840  0.43013129  0.30896117     0.16700
O824        O  0.84315256  0.47748886  0.32817643    -0.60200
H825        H  0.83472936  0.35456109  0.25573501     0.16700
O826        O  0.75909930  0.30763599  0.23503246    -0.60300
H827        H  0.75378774  0.29165169  0.25708669     0.43700
H828        H  0.85436027  0.49443332  0.30440932     0.43600
C829        C  0.58651382  0.39702810  0.31316868    -0.05400
C830        C  0.62701586  0.41546620  0.28929548    -0.32900
C831        C  0.64789643  0.39633507  0.27952550     0.36400
C832        C  0.62806693  0.35797071  0.29358101    -0.05800
C833        C  0.58643750  0.33844393  0.31503630    -0.32800
C834        C  0.56585489  0.35784168  0.32512863     0.36300
H835        H  0.64308007  0.44561507  0.27975507     0.16700
O836        O  0.68790950  0.41598153  0.25714090    -0.60200
H837        H  0.57000680  0.30865761  0.32552988     0.16700
O838        O  0.52534223  0.33806885  0.34622514    -0.60300
H839        H  0.52720284  0.34520785  0.38009166     0.43700
H840        H  0.68500464  0.40360641  0.22329582     0.43600
C841        C  0.55962999  0.14111919  0.81408451    -0.05400
C842        C  0.59518840  0.15353664  0.78092520    -0.32900
C843        C  0.61665787  0.19174726  0.76710673     0.36400
C844        C  0.60308182  0.21870484  0.78732060    -0.05800
C845        C  0.56538897  0.20448229  0.81751301    -0.32800
C846        C  0.54368880  0.16588540  0.83110971     0.36300
H847        H  0.60736340  0.13433767  0.76716791     0.16700
O848        O  0.65229740  0.20355942  0.73590532    -0.60200
H849        H  0.55439364  0.22468032  0.83340467     0.16700
O850        O  0.50890734  0.15434636  0.86369978    -0.60300
H851        H  0.51953413  0.16812752  0.89456885     0.43700
H852        H  0.64429725  0.19848229  0.70572168     0.43600
C853        C  0.82776790  0.39194226  0.80231644    -0.05400
C854        C  0.79914856  0.34820210  0.80152268    -0.32900
C855        C  0.75844883  0.32589587  0.79234694     0.36400
C856        C  0.74481002  0.34739368  0.78467368    -0.05800
C857        C  0.77410461  0.39054703  0.78237415    -0.32800
C858        C  0.81544550  0.41262069  0.79025925     0.36300
H859        H  0.80791636  0.33097003  0.80910944     0.16700
O860        O  0.73183038  0.28355608  0.79383056    -0.60200
H861        H  0.76481220  0.40758781  0.77541098     0.16700
O862        O  0.84280825  0.45473677  0.78803580    -0.60300
H863        H  0.85502432  0.45471830  0.75469631     0.43700
H864        H  0.73633216  0.26831072  0.76193880     0.43600
C865        C  0.62623739  0.35454758  0.80198199    -0.05400
C866        C  0.58972564  0.33620527  0.78363092    -0.32900
C867        C  0.57177552  0.35826912  0.79401348     0.36400
C868        C  0.59007821  0.39906872  0.82361965    -0.05800
C869        C  0.62639549  0.41737713  0.84220373    -0.32800
C870        C  0.64484433  0.39569591  0.83111034     0.36300
H871        H  0.57494169  0.30455181  0.76131281     0.16700
O872        O  0.53572682  0.33919562  0.77615404    -0.60200
H873        H  0.64052032  0.44863807  0.86540409     0.16700
O874        O  0.67964384  0.41402669  0.85105054    -0.60300
H875        H  0.70349010  0.43260601  0.83016152     0.43700
H876        H  0.51285775  0.32638042  0.80134454     0.43600
C877        C  0.86969880  0.12225230  0.47100821    -0.05400
C878        C  0.85767679  0.09366255  0.49718785    -0.32900
C879        C  0.87815181  0.07393245  0.48693071     0.36400
C880        C  0.91036588  0.08180947  0.44912323    -0.05800
C881        C  0.92184427  0.10999004  0.42274602    -0.32800
C882        C  0.90216547  0.13035929  0.43358203     0.36300
H883        H  0.83266515  0.08695144  0.52595179     0.16700
O884        O  0.86520440  0.04567886  0.51272778    -0.60200
H885        H  0.94639804  0.11647045  0.39345268     0.16700
O886        O  0.91349819  0.15649848  0.40575724    -0.60300
H887        H  0.94119010  0.18264614  0.41392328     0.43700
H888        H  0.88042995  0.06340903  0.54059188     0.43600
C889        C  0.87560761  0.24577165  0.47225427    -0.05400
C890        C  0.85333561  0.25944197  0.46724040    -0.32900
C891        C  0.87378697  0.29687184  0.45205629     0.36400
C892        C  0.91760069  0.32163552  0.44085611    -0.05800
C893        C  0.94021005  0.30948430  0.44842274    -0.32800
C894        C  0.91964683  0.27181110  0.46367430     0.36300
H895        H  0.81960643  0.24064352  0.47413969     0.16700
O896        O  0.85035517  0.30867491  0.44807825    -0.60200
H897        H  0.97392612  0.32853752  0.44120937     0.16700
O898        O  0.94297690  0.26107298  0.47044429    -0.60300
H899        H  0.95537006  0.25348211  0.43868832     0.43700
H900        H  0.84925228  0.32725923  0.47884929     0.43600
C901        C  0.65814362  0.07157202  0.48740231    -0.05400
C902        C  0.67982298  0.11447906  0.51104031    -0.32900
C903        C  0.72055620  0.13641007  0.52031795     0.36400
C904        C  0.74077832  0.11567595  0.50503209    -0.05800
C905        C  0.71743928  0.07156225  0.48611725    -0.32800
C906        C  0.67644581  0.04951997  0.47705609     0.36300
H907        H  0.66588935  0.13174099  0.52024881     0.16700
O908        O  0.74119225  0.17886575  0.54151126    -0.60200
H909        H  0.73201055  0.05473931  0.47455752     0.16700
O910        O  0.65603195  0.00742033  0.45445692    -0.60300
H911        H  0.66412638  0.00753743  0.42055506     0.43700
H912        H  0.73496263  0.17973042  0.57557992     0.43600
C913        C  0.87162873  0.12502999  0.97272232    -0.05400
C914        C  0.86593601  0.10379624  0.00426407    -0.32900
C915        C  0.88580883  0.08341386  0.99337658     0.36400
C916        C  0.91099693  0.08346796  0.94996784    -0.05800
C917        C  0.91592899  0.10437826  0.91840407    -0.32800
C918        C  0.89691654  0.12542287  0.92974759     0.36300
H919        H  0.84665814  0.10363736  0.03759731     0.16700
O920        O  0.88016551  0.06342624  0.02524076    -0.60200
H921        H  0.93490990  0.10477551  0.88481798     0.16700
O922        O  0.90214634  0.14525036  0.89793879    -0.60300
H923        H  0.92841974  0.17409824  0.90372065     0.43700
H924        H  0.85750052  0.03303878  0.01507414     0.43600
C925        C  0.93445029  0.33412833  0.95680191    -0.05400
C926        C  0.89643914  0.32033218  0.98595374    -0.32900
C927        C  0.87392873  0.28219108  0.00054413     0.36400
C928        C  0.88908829  0.25673730  0.98529460    -0.05800
C929        C  0.92927741  0.27281219  0.96002237    -0.32800
C930        C  0.95216749  0.31156366  0.94614978     0.36300
H931        H  0.88322856  0.33835642  0.99584098     0.16700
O932        O  0.83680533  0.26973462  0.02907055    -0.60200
H933        H  0.94196052  0.25418050  0.94845067     0.16700
O934        O  0.98984350  0.32493635  0.91866381    -0.60300
H935        H  0.01081077  0.34252554  0.94100430     0.43700
H936        H  0.81681818  0.26072883  0.00879419     0.43600
C937        C  0.74851709  0.12425130  0.98878510    -0.05400
C938        C  0.73296350  0.14752002  0.99226147    -0.32900
C939        C  0.69285138  0.12710149  0.98194527     0.36400
C940        C  0.66694086  0.08235069  0.96803524    -0.05800
C941        C  0.68103799  0.05879769  0.96810343    -0.32800
C942        C  0.72129325  0.07925599  0.97841675     0.36300
H943        H  0.75235887  0.18198777  0.00161195     0.16700
O944        O  0.67919570  0.15129904  0.98599627    -0.60200
H945        H  0.66148134  0.02432921  0.95812092     0.16700
O946        O  0.73414982  0.05475656  0.97581901    -0.60300
H947        H  0.72548582  0.04865434  0.00746061     0.43700
H948        H  0.69183845  0.16245709  0.95695121     0.43600
C949        C  0.85801031  0.64773098  0.97110000     0.80300
N950        N  0.81658949  0.62710691  0.97068226    -0.78000
C951        C  0.80003514  0.64915003  0.97943469     0.82700
N952        N  0.82570029  0.69226689  0.98773723    -0.78000
C953        C  0.86724564  0.71355609  0.98783771     0.82800
N954        N  0.88341674  0.69103928  0.97910834    -0.79700
C955        C  0.84998389  0.63902074  0.47328526     0.80300
N956        N  0.80764583  0.61623356  0.48232949    -0.78000
C957        C  0.78801144  0.63526956  0.49061352     0.82700
N958        N  0.81117179  0.67693048  0.48921315    -0.78000
C959        C  0.85331573  0.70009633  0.48004374     0.82800
N960        N  0.87256742  0.68074644  0.47169815    -0.79700
C961        C  0.64548963  0.83480493  0.78952601     0.80300
N962        N  0.68714190  0.85667852  0.79070105    -0.78000
C963        C  0.70447272  0.83586028  0.78495334     0.82700
N964        N  0.67943739  0.79286595  0.77843291    -0.78000
C965        C  0.63794014  0.77025882  0.77689608     0.82800
N966        N  0.62093932  0.79150440  0.78293570    -0.79700
C967        C  0.65328714  0.84260413  0.28723951     0.80300
N968        N  0.69578591  0.86657785  0.28069920    -0.78000
C969        C  0.71617558  0.84866290  0.27447216     0.82700
N970        N  0.69362485  0.80703734  0.27597659    -0.78000
C971        C  0.65136603  0.78284405  0.28297243     0.82800
N972        N  0.63151104  0.80105076  0.28882913    -0.79700
O973        O  0.63006763  0.58470050  0.91920284    -0.75200
O974        O  0.59812913  0.02140269  0.95455649    -0.54200
C975        C  0.63363572  0.56418806  0.93864099     0.78500
O976        O  0.93799430  0.54775079  0.95235485    -0.59900
O977        O  0.93409053  0.53720370  0.87562258    -0.52900
C978        C  0.92759503  0.55119904  0.91968731     0.70500
O979        O  0.99124156  0.51362756  0.02367073    -0.74400
O980        O  0.52352849  0.98654138  0.02008141    -0.55000
C981        C  0.50895058  0.00448201  0.05512432     0.76500
O982        O  0.57792774  0.60939248  0.83453735    -0.59600
O983        O  0.51222302  0.57764458  0.81983024    -0.52700
C984        C  0.55144232  0.60764806  0.81838584     0.73100
Zr985      Zr  0.57947669  0.57169610  0.87913875     2.54700
O986        O  0.60642815  0.64324941  0.92710328    -0.80100
O987        O  0.64405475  0.59633555  0.82557195    -0.93500
Zr988      Zr  0.97284865  0.51887835  0.95889130     2.64700
O989        O  0.51646232  0.60235859  0.01852449    -0.98500
O990        O  0.91375321  0.00087300  0.02942176    -0.80600
O991        O  0.54550669  0.54237404  0.94696829    -0.83900
O992        O  0.51376337  0.56080391  0.90628202    -2.18600
O993        O  0.50226539  0.96488913  0.74757712    -0.67300
O994        O  0.97614841  0.48960085  0.74655721    -0.51900
C995        C  0.99254677  0.98177003  0.72732422     0.71500
O996        O  0.92606886  0.87178494  0.92717689    -0.60200
O997        O  0.99129897  0.90541969  0.94520230    -0.52200
C998        C  0.95256172  0.87428892  0.94430848     0.73300
O999        O  0.87275172  0.90382402  0.85250903    -0.71600
O1000       O  0.89893283  0.96381879  0.82941984    -0.50300
C1001       C  0.86956174  0.92554468  0.83448525     0.74700
O1002       O  0.54919730  0.92070222  0.81235974    -0.66900
O1003       O  0.56041187  0.93633010  0.88748141    -0.54100
C1004       C  0.56318767  0.91964752  0.84347589     0.73000
Zr1005     Zr  0.51735620  0.95394361  0.80987111     2.77500
O1006       O  0.99219061  0.88752097  0.74104294    -0.98300
O1007       O  0.58023611  0.97953225  0.75367664    -0.78500
Zr1008     Zr  0.92426935  0.91274751  0.88750568     2.70100
O1009       O  0.89498931  0.84301063  0.83450317    -0.79700
O1010       O  0.86087447  0.88509005  0.94282615    -0.98800
Zr1011     Zr  0.52695200  0.97157730  0.93620758     2.21500
Zr1012     Zr  0.96884860  0.50285673  0.83065931     2.11100
O1013       O  0.95933508  0.94355294  0.82084298    -2.47500
O1014       O  0.99033994  0.92396774  0.86037252    -0.79500
O1015       O  0.53861176  0.52331584  0.81708427    -0.71700
O1016       O  0.96506965  0.96009476  0.95003608    -2.32700
O1017       O  0.57041473  0.50521369  0.85771141    -2.28900
O1018       O  0.93368751  0.97958481  0.91172504    -0.73500
H1019       H  0.51710852  0.58747590  0.91304506     0.78500
H1020       H  0.95196993  0.94704732  0.97675626     0.79600
H1021       H  0.94249701  0.92585926  0.79539092     0.81800
H1022       H  0.59730402  0.50960719  0.84890100     0.79400
H1023       H  0.89826405  0.96949006  0.01947647     0.42500
H1024       H  0.84993303  0.90132450  0.94477204     0.41400
H1025       H  0.91756689  0.83876882  0.82530730     0.41100
H1026       H  0.01515555  0.88788599  0.71764555     0.39000
H1027       H  0.59987385  0.50884617  0.73856989     0.42200
H1028       H  0.65896794  0.62763848  0.83234046     0.37000
H1029       H  0.63244665  0.66211798  0.90842594     0.43100
H1030       H  0.51160790  0.59956876  0.05099573     0.39500
H1031       H  0.46770228  0.86356735  0.77941308     0.44400
H1032       H  0.63527030  0.58624227  0.79423937     0.43100
H1033       H  0.98157463  0.58763946  0.03470055     0.43300
H1034       H  0.84088855  0.85588937  0.92603733     0.43600
O1035       O  0.62322187  0.57522953  0.43634513    -0.75200
O1036       O  0.59073589  0.01287578  0.46520582    -0.54200
C1037       C  0.62342271  0.54921903  0.45018398     0.78500
O1038       O  0.93743138  0.54555534  0.45526558    -0.59900
O1039       O  0.94621516  0.54919293  0.37981898    -0.52900
C1040       C  0.93282659  0.55559592  0.42349710     0.70500
O1041       O  0.98290732  0.50032347  0.52175866    -0.74400
O1042       O  0.50931235  0.97440145  0.52276087    -0.55000
C1043       C  0.49162423  0.98995101  0.55660118     0.76500
O1044       O  0.58931081  0.62114514  0.35551740    -0.59600
O1045       O  0.52772131  0.59496745  0.33407333    -0.52700
C1046       C  0.56687093  0.62356110  0.33734611     0.73100
Zr1047     Zr  0.58037105  0.57372636  0.39512389     2.54700
O1048       O  0.60395752  0.64063374  0.45279610    -0.80100
O1049       O  0.64938757  0.60448730  0.34989320    -0.93500
Zr1050     Zr  0.97250925  0.51593380  0.45934795     2.64700
O1051       O  0.50443211  0.59143571  0.52874111    -0.98500
O1052       O  0.90157138  0.98565355  0.51913983    -0.80600
O1053       O  0.53762647  0.53400011  0.45428627    -0.83900
O1054       O  0.51477116  0.56386009  0.41715580    -2.18600
O1055       O  0.52413185  0.98406800  0.24766454    -0.67300
O1056       O  0.99146202  0.50823435  0.24975215    -0.51900
C1057       C  0.00996162  0.99849869  0.22751462     0.71500
O1058       O  0.91697715  0.86243779  0.40791814    -0.60200
O1059       O  0.97650224  0.89123323  0.43646416    -0.52200
C1060       C  0.93846425  0.86100380  0.42899946     0.73300
O1061       O  0.87948879  0.91073487  0.33490714    -0.71600
O1062       O  0.91047987  0.97563607  0.32001871    -0.50300
C1063       C  0.87994810  0.93638472  0.31944075     0.74700
O1064       O  0.56327939  0.93445646  0.31491751    -0.66900
O1065       O  0.55477073  0.93072528  0.39040567    -0.54100
C1066       C  0.56737701  0.92375887  0.34633726     0.73000
Zr1067     Zr  0.53168468  0.96723497  0.31118336     2.77500
O1068       O  0.00270708  0.89545826  0.23702903    -0.97700
O1069       O  0.59935286  0.99969903  0.26344489    -0.78500
Zr1070     Zr  0.92408530  0.91174847  0.37296496     2.70100
O1071       O  0.90044684  0.84750026  0.31106619    -0.79700
O1072       O  0.85643950  0.88036904  0.42084345    -0.98800
Zr1073     Zr  0.52244574  0.96738578  0.43862738     2.21500
Zr1074     Zr  0.98026114  0.51497523  0.33302367     2.11100
O1075       O  0.96728341  0.95092799  0.31352995    -2.47500
O1076       O  0.98987019  0.92217549  0.35262991    -0.79500
O1077       O  0.54654451  0.53573371  0.32677181    -0.71700
O1078       O  0.95709570  0.95082989  0.44201373    -2.32700
O1079       O  0.57007205  0.50657853  0.36353615    -2.28900
O1080       O  0.93407615  0.97880609  0.40349405    -0.73500
H1081       H  0.51875497  0.59115355  0.42780273     0.78500
H1082       H  0.94051919  0.93465593  0.46619230     0.79600
H1083       H  0.95338852  0.93660743  0.28578647     0.81800
H1084       H  0.59652198  0.51016456  0.35656346     0.79400
H1085       H  0.88739129  0.95470854  0.50578892     0.42500
H1086       H  0.84939374  0.90095782  0.42802601     0.41400
H1087       H  0.87629478  0.82426013  0.32671458     0.41100
H1088       H  0.97556426  0.88827391  0.23420144     0.39000
H1089       H  0.61003262  0.53045824  0.24953537     0.42200
H1090       H  0.64424280  0.59766721  0.31744045     0.37000
H1091       H  0.61544115  0.63962737  0.47576347     0.43100
H1092       H  0.48565955  0.58627256  0.55862212     0.39500
H1093       H  0.49314041  0.87907105  0.26804186     0.44400
H1094       H  0.65813459  0.58650285  0.34866023     0.43100
H1095       H  0.98526430  0.58049376  0.54230631     0.43300
H1096       H  0.83668291  0.85541034  0.39900066     0.43600
C1097       C  0.99153938  0.98110259  0.67901456    -0.05400
C1098       C  0.97502404  0.00027993  0.67266269    -0.32900
C1099       C  0.97513476  0.00185310  0.62789838     0.36400
C1100       C  0.48830688  0.98684583  0.60469665    -0.05800
C1101       C  0.49270849  0.95741634  0.61066098    -0.32800
C1102       C  0.49025065  0.95395804  0.65538215     0.36300
H1103       H  0.96233271  0.01478361  0.70257760     0.16700
O1104       O  0.98740587  0.53757310  0.61101364    -0.60200
H1105       H  0.49785008  0.93664609  0.58048229     0.16700
O1106       O  0.49432163  0.92438966  0.65915888    -0.60300
H1107       H  0.46539454  0.89875132  0.66290834     0.43700
H1108       H  0.01627139  0.56366933  0.60907619     0.43600
C1109       C  0.01178744  0.00164343  0.18002328    -0.05400
C1110       C  0.02113690  0.97713775  0.14038790    -0.32900
C1111       C  0.02118682  0.97774077  0.09523852     0.36400
C1112       C  0.51095652  0.00510543  0.10300766    -0.05800
C1113       C  0.48361816  0.50995463  0.12743694    -0.32800
C1114       C  0.48182406  0.50810305  0.17273205     0.36300
H1115       H  0.02766258  0.95656090  0.14422791     0.16700
O1116       O  0.02881354  0.95165891  0.05797068    -0.60200
H1117       H  0.45947968  0.50965069  0.11983394     0.16700
O1118       O  0.44958845  0.50599261  0.20571642    -0.60300
H1119       H  0.42765808  0.47515325  0.20422851     0.43700
H1120       H  0.05963188  0.96755491  0.05179397     0.43600
C1121       C  0.62808873  0.73930044  0.29119508    -0.05400
C1122       C  0.65056158  0.72357412  0.28980963    -0.32900
C1123       C  0.63097381  0.68570370  0.30378072     0.36400
C1124       C  0.58780659  0.66220280  0.31925250    -0.05800
C1125       C  0.56476920  0.67642818  0.31809116    -0.32800
C1126       C  0.58440072  0.71441800  0.30409634     0.36300
H1127       H  0.68387962  0.74117268  0.27902366     0.16700
O1128       O  0.65428626  0.67153690  0.30118441    -0.60200
H1129       H  0.53148516  0.65864754  0.32930686     0.16700
O1130       O  0.56057053  0.72738590  0.30479450    -0.60300
H1131       H  0.55166526  0.71476803  0.27308006     0.43700
H1132       H  0.67020601  0.68951110  0.32851074     0.43600
C1133       C  0.76193928  0.87511299  0.27529344    -0.05400
C1134       C  0.78257457  0.91772809  0.30045120    -0.32900
C1135       C  0.82257670  0.93951017  0.31256216     0.36400
C1136       C  0.84227970  0.91853431  0.29962161    -0.05800
C1137       C  0.82342293  0.87763599  0.27072340    -0.32800
C1138       C  0.78377267  0.85601021  0.25829320     0.36300
H1139       H  0.76652702  0.93313754  0.31388705     0.16700
O1140       O  0.84010196  0.97947510  0.34101583    -0.60200
H1141       H  0.83881030  0.86160917  0.25927189     0.16700
O1142       O  0.76612773  0.81570381  0.23048847    -0.60300
H1143       H  0.75947273  0.79732453  0.25035744     0.43700
H1144       H  0.85810181  0.99933943  0.31940464     0.43600
C1145       C  0.58856585  0.90222304  0.33023775    -0.05400
C1146       C  0.62482166  0.91742703  0.29776345    -0.32900
C1147       C  0.64604305  0.89806022  0.28267045     0.36400
C1148       C  0.63068877  0.86255330  0.29964428    -0.05800
C1149       C  0.59349056  0.84649631  0.33075110    -0.32800
C1150       C  0.57276838  0.86630200  0.34644073     0.36300
H1151       H  0.63713518  0.94489380  0.28468184     0.16700
O1152       O  0.68162999  0.91407724  0.25140842    -0.60200
H1153       H  0.58086623  0.81906504  0.34408052     0.16700
O1154       O  0.53629232  0.84941780  0.37632129    -0.60300
H1155       H  0.54494025  0.85978529  0.40784898     0.43700
H1156       H  0.67196921  0.89889930  0.22002228     0.43600
C1157       C  0.56827614  0.64367203  0.79777208    -0.05400
C1158       C  0.60814490  0.66165678  0.77228159    -0.32900
C1159       C  0.62943169  0.70095990  0.76091844     0.36400
C1160       C  0.61148610  0.72395033  0.77628974    -0.05800
C1161       C  0.56976358  0.70385402  0.79740619    -0.32800
C1162       C  0.54806624  0.66383955  0.80806377     0.36300
H1163       H  0.62370083  0.64597390  0.76284315     0.16700
O1164       O  0.66882265  0.71760361  0.73702185    -0.60200
H1165       H  0.55489722  0.72037509  0.80878332     0.16700
O1166       O  0.50839357  0.64629207  0.83143966    -0.60300
H1167       H  0.51195384  0.66073530  0.86486091     0.43700
H1168       H  0.66495968  0.70850237  0.70351645     0.43600
C1169       C  0.82925124  0.90421920  0.81788315    -0.05400
C1170       C  0.80625998  0.86017588  0.79976804    -0.32900
C1171       C  0.76702305  0.83809586  0.78610087     0.36400
C1172       C  0.74892216  0.85969975  0.79186233    -0.05800
C1173       C  0.77287658  0.90427510  0.80805849    -0.32800
C1174       C  0.81285924  0.92655706  0.82052403     0.36300
H1175       H  0.81878003  0.84255175  0.79618295     0.16700
O1176       O  0.74644130  0.79509954  0.76823919    -0.60200
H1177       H  0.76020624  0.92192911  0.81253473     0.16700
O1178       O  0.83440180  0.96969742  0.83806224    -0.60300
H1179       H  0.84863055  0.98257770  0.81016171     0.43700
H1180       H  0.75376680  0.79201225  0.73378495     0.43600
C1181       C  0.62621427  0.85808446  0.80039884    -0.05400
C1182       C  0.58857942  0.83827153  0.78340706    -0.32900
C1183       C  0.56802763  0.85823715  0.79645099     0.36400
C1184       C  0.58474251  0.89839235  0.82747191    -0.05800
C1185       C  0.62251636  0.91845581  0.84393368    -0.32800
C1186       C  0.64355373  0.89904780  0.83016528     0.36300
H1187       H  0.57474295  0.80695565  0.76036810     0.16700
O1188       O  0.53102659  0.83771605  0.77984237    -0.60200
H1189       H  0.63586654  0.94946287  0.86763576     0.16700
O1190       O  0.67985454  0.91952189  0.84824320    -0.60300
H1191       H  0.70204910  0.93939971  0.82761091     0.43700
H1192       H  0.50949494  0.81746878  0.80036723     0.43600
C1193       C  0.87110975  0.61771478  0.46096493    -0.05400
C1194       C  0.85820860  0.58775903  0.48566142    -0.32900
C1195       C  0.87850169  0.56779699  0.47471044     0.36400
C1196       C  0.91135524  0.57680192  0.43761700    -0.05800
C1197       C  0.92349833  0.60608662  0.41239256    -0.32800
C1198       C  0.90399812  0.62673352  0.42402863     0.36300
H1199       H  0.83270921  0.58024872  0.51391540     0.16700
O1200       O  0.86488193  0.53835960  0.49916329    -0.60200
H1201       H  0.94851894  0.61331913  0.38357039     0.16700
O1202       O  0.91596643  0.65411988  0.39753942    -0.60300
H1203       H  0.94244629  0.68078747  0.40832837     0.43700
H1204       H  0.87960723  0.55516026  0.52742760     0.43600
C1205       C  0.87656497  0.74380528  0.47243530    -0.05400
C1206       C  0.85371554  0.75747773  0.46900285    -0.32900
C1207       C  0.87353366  0.79587049  0.45634375     0.36400
C1208       C  0.91733964  0.82183051  0.44622215    -0.05800
C1209       C  0.94057800  0.80980587  0.45264389    -0.32800
C1210       C  0.92058775  0.77108077  0.46545728     0.36300
H1211       H  0.81994991  0.73789010  0.47499054     0.16700
O1212       O  0.84946723  0.80745574  0.45373636    -0.60200
H1213       H  0.97432268  0.82988275  0.44655467     0.16700
O1214       O  0.94437287  0.76056930  0.47154028    -0.60300
H1215       H  0.95685678  0.75344756  0.43961714     0.43700
H1216       H  0.84732070  0.82448171  0.48537096     0.43600
C1217       C  0.66116859  0.56713758  0.46988916    -0.05400
C1218       C  0.68165125  0.60904076  0.49644133    -0.32900
C1219       C  0.72148481  0.63024707  0.50792166     0.36400
C1220       C  0.74212860  0.60990560  0.49181920    -0.05800
C1221       C  0.71993748  0.56655767  0.46931243    -0.32800
C1222       C  0.67975426  0.54518447  0.45815096     0.36300
H1223       H  0.66739585  0.62609703  0.50669159     0.16700
O1224       O  0.74092333  0.67180164  0.53232969    -0.60200
H1225       H  0.73488682  0.55006420  0.45691353     0.16700
O1226       O  0.66044271  0.50402380  0.43258211    -0.60300
H1227       H  0.66935159  0.50639207  0.39931506     0.43700
H1228       H  0.73417299  0.67030765  0.56573640     0.43600
C1229       C  0.87541547  0.62278148  0.95911033    -0.05400
C1230       C  0.85810605  0.58406979  0.92577865    -0.32900
C1231       C  0.87469741  0.56032235  0.91260530     0.36400
C1232       C  0.90832256  0.57453612  0.93385730    -0.05800
C1233       C  0.92497337  0.61267486  0.96798089    -0.32800
C1234       C  0.90900061  0.63690853  0.98039980     0.36300
H1235       H  0.83213256  0.57255624  0.90912853     0.16700
O1236       O  0.85710201  0.52269709  0.87995548    -0.60200
H1237       H  0.95103908  0.62416591  0.98444202     0.16700
O1238       O  0.92620828  0.67411173  0.01369129    -0.60300
H1239       H  0.90912645  0.66605003  0.04376960     0.43700
H1240       H  0.86827262  0.53105894  0.84928151     0.43600
C1241       C  0.93656914  0.83846017  0.96441839    -0.05400
C1242       C  0.89955080  0.82352399  0.99545156    -0.32900
C1243       C  0.87873396  0.78463203  0.00781299     0.36400
C1244       C  0.89466103  0.75970958  0.98832652    -0.05800
C1245       C  0.93414845  0.77706521  0.96147220    -0.32800
C1246       C  0.95518755  0.81631411  0.94956573     0.36300
H1247       H  0.88569601  0.84113365  0.00843591     0.16700
O1248       O  0.84214271  0.77055422  0.03771822    -0.60200
H1249       H  0.94715931  0.75867113  0.94631123     0.16700
O1250       O  0.99148008  0.83030362  0.91927087    -0.60300
H1251       H  0.01394036  0.84653224  0.93939765     0.43700
H1252       H  0.82127641  0.76273202  0.01958371     0.43600
C1253       C  0.75552482  0.62681489  0.97477122    -0.05400
C1254       C  0.74138822  0.65082290  0.97626204    -0.32900
C1255       C  0.70140043  0.63099660  0.96615923     0.36400
C1256       C  0.67416016  0.58617473  0.95500600    -0.05800
C1257       C  0.68718866  0.56211974  0.95641039    -0.32800
C1258       C  0.72741242  0.58193450  0.96594358     0.36300
H1259       H  0.76178580  0.68528925  0.98372233     0.16700
O1260       O  0.68926473  0.65584544  0.96754493    -0.60200
H1261       H  0.66677407  0.52762962  0.94804391     0.16700
O1262       O  0.73921431  0.55682996  0.96452049    -0.60300
H1263       H  0.73186371  0.55276588  0.99696316     0.43700
H1264       H  0.70219242  0.66544030  0.93750178     0.43600
loop_ 
_geom_bond_atom_site_label_1 
_geom_bond_atom_site_label_2 
_geom_bond_distance 
_geom_bond_site_symmetry_2 
_ccdc_geom_bond_type 
C1            N2   1.360       .  A
C1            N6   1.362       .  A
C1          C281   1.477       .  S
N2            C3   1.356       .  A
C3            N4   1.357       .  A
C3          C305   1.492       .  S
N4            C5   1.358       .  A
C5            N6   1.360       .  A
C5          C296   1.483       .  S
C7            N8   1.364       .  A
C7           N12   1.359       .  A
C7          C245   1.478       .  S
N8            C9   1.363       .  A
C9           N10   1.358       .  A
C9          C272   1.490       .  S
N10          C11   1.356       .  A
C11          N12   1.355       .  A
C11         C257   1.492       .  S
C13          N14   1.360       .  A
C13          N18   1.360       .  A
C13         C233   1.475       .  S
N14          C15   1.359       .  A
C15          N16   1.353       .  A
C15         C224   1.485       .  S
N16          C17   1.354       .  A
C17          N18   1.357       .  A
C17         C212   1.475       .  S
C19          N20   1.361       .  A
C19          N24   1.359       .  A
C19         C200   1.479       .  S
N20          C21   1.358       .  A
C21          N22   1.359       .  A
C21         C185   1.483       .  S
N22          C23   1.358       .  A
C23          N24   1.356       .  A
C23         C173   1.491       .  S
O25         Zr37   2.432       .  S
O25          C27   1.286       .  A
O26         Zr63   2.421       .  S
O26         C343   1.285       .  A
C27         C308   1.490       .  S
C27         O342   1.288       .  A
O28         Zr40   2.453       .  S
O28          C30   1.290       .  A
O29         Zr64   2.411       .  S
O29          C30   1.285       .  A
C30         C284   1.475       .  S
O31         Zr40   2.458   1_554  S
O31         C981   1.292       .  A
O32         Zr63   2.403       .  S
O32          C33   1.282   1_556  A
C33         C164   1.488       .  S
C33         O979   1.293   1_455  A
O34         Zr37   2.434       .  S
O34          C36   1.287       .  A
O35        Zr696   2.416   1_455  S
O35          C36   1.284       .  A
C36         C209   1.467       .  S
Zr37         O38   2.435       .  S
Zr37         O39   2.436       .  S
Zr37         O43   2.370       .  S
Zr37         O44   2.370       .  S
Zr37         O67   2.365       .  S
Zr37         O69   2.370       .  S
O38          H81   0.990       .  S
O39          H80   0.990       .  S
O39          H84   0.990       .  S
Zr40        O673   2.437   1_556  S
Zr40        O358   2.434   1_556  S
Zr40        O676   2.373       .  S
Zr40        O675   2.371       .  S
Zr40        O384   2.372   1_545  S
Zr40        O386   2.382   1_545  S
O41        Zr672   2.434   1_454  S
O41          H82   0.990   1_455  S
O41         H717   0.990       .  S
O42        Zr356   2.434   1_554  S
O42          H75   0.990       .  S
O43        Zr672   2.373   1_455  S
O43        Zr379   2.376   1_545  S
O44        Zr672   2.377   1_455  S
O44        Zr696   2.384   1_455  S
O44          H71   0.964       .  S
O45         Zr57   2.453       .  S
O45         C679   1.291   1_455  A
O46         Zr64   2.419   1_565  S
O46         C363   1.286       .  A
C47         C149   1.490       .  S
C47         O677   1.290       .  A
C47         O362   1.285       .  A
O48         Zr60   2.431       .  S
O48          C50   1.287       .  A
O49        Zr695   2.438       .  S
O49          C50   1.288       .  A
C50         C293   1.474       .  S
O51         Zr60   2.432       .  S
O51          C53   1.287       .  A
O52        Zr380   2.423       .  S
O52          C53   1.286       .  A
C53         C221   1.484       .  S
O54         Zr57   2.451       .  S
O54          C56   1.289       .  A
O55         Zr63   2.403       .  S
O55          C56   1.283       .  A
C56         C236   1.471       .  S
Zr57         O59   2.435       .  S
Zr57        O690   2.435   1_455  S
Zr57        O697   2.374   1_455  S
Zr57        O698   2.376   1_455  S
Zr57        O385   2.374       .  S
Zr57        O383   2.369       .  S
O58        Zr689   2.437       .  S
O58          H78   0.990       .  S
O58         H715   0.990       .  S
O59         H395   0.990       .  S
Zr60         O61   2.434       .  S
Zr60         O62   2.436       .  S
Zr60         O66   2.367       .  S
Zr60         O65   2.369       .  S
Zr60         O70   2.372       .  S
Zr60         O68   2.367       .  S
O61          H77   0.990       .  S
O62          H76   0.990       .  S
O62          H86   0.990       .  S
Zr63        O681   2.426   1_455  S
Zr63        O359   2.378       .  S
Zr63        O698   2.381   1_455  S
Zr63        O700   2.382   1_455  S
Zr63        O385   2.382       .  S
Zr64        O667   2.412       .  S
Zr64        O368   2.427   1_545  S
Zr64        O676   2.389       .  S
Zr64        O381   2.378   1_545  S
Zr64        O699   2.379       .  S
Zr64        O386   2.380   1_545  S
O65        Zr689   2.368       .  S
O65        Zr380   2.384       .  S
O65          H73   0.965       .  S
O66        Zr689   2.373       .  S
O66        Zr695   2.379       .  S
O67        Zr373   2.366   1_545  S
O67        Zr696   2.376   1_455  S
O68        Zr356   2.366       .  S
O68        Zr695   2.376       .  S
O68          H72   0.965       .  S
O69        Zr373   2.377   1_545  S
O69        Zr379   2.380   1_545  S
O69          H74   0.967       .  S
O70        Zr356   2.382       .  S
O70        Zr380   2.379       .  S
H79         O375   0.990       .  S
H83         O690   0.990       .  S
H85         O673   0.990       .  S
O87         Zr99   2.433       .  S
O87          C89   1.287       .  A
O88        Zr125   2.436       .  S
O88         C405   1.288       .  A
C89         C269   1.483       .  S
C89         O404   1.288       .  A
O90        Zr102   2.444       .  S
O90          C92   1.288       .  A
O91        Zr126   2.413       .  S
O91          C92   1.286       .  A
C92         C248   1.477       .  S
O93        Zr102   2.443       .  S
O93        C1043   1.288   1_545  A
O94        Zr125   2.414       .  S
O94          C95   1.285   1_455  A
C95         C152   1.487       .  S
C95        O1041   1.291       .  A
O96         Zr99   2.435       .  S
O96          C98   1.287       .  A
O97        Zr758   2.427   1_455  S
O97          C98   1.287       .  A
C98         C176   1.484       .  S
Zr99        O100   2.435       .  S
Zr99        O101   2.438       .  S
Zr99        O105   2.370       .  S
Zr99        O106   2.374       .  S
Zr99        O129   2.363       .  S
Zr99        O131   2.368       .  S
O100        H143   0.990       .  S
O101        H142   0.990       .  S
O101        H146   0.990       .  S
Zr102       O735   2.435       .  S
Zr102       O420   2.434   1_545  S
Zr102       O738   2.371       .  S
Zr102       O737   2.371       .  S
Zr102       O446   2.367   1_545  S
Zr102       O448   2.377   1_545  S
O103       Zr734   2.434       .  S
O103        H144   0.990       .  S
O103        H779   0.990   1_655  S
O104       Zr418   2.434       .  S
O104        H137   0.990       .  S
O105       Zr734   2.373   1_455  S
O105       Zr441   2.380   1_545  S
O106       Zr734   2.374   1_455  S
O106       Zr758   2.380   1_455  S
O106        H133   0.965       .  S
O107       Zr119   2.464       .  S
O107        C741   1.293       .  A
O108       Zr126   2.416       .  S
O108        C425   1.285       .  A
C109        C161   1.484       .  S
C109        O739   1.291       .  A
C109        O424   1.285       .  A
O110       Zr122   2.439       .  S
O110        C112   1.288       .  A
O111       Zr757   2.433       .  S
O111        C112   1.288       .  A
C112        C260   1.485       .  S
O113       Zr122   2.433       .  S
O113        C115   1.286       .  A
O114       Zr442   2.435       .  S
O114        C115   1.287       .  A
C115        C188   1.476       .  S
O116       Zr119   2.441       .  S
O116        C118   1.288       .  A
O117       Zr125   2.420       .  S
O117        C118   1.287       .  A
C118        C197   1.469       .  S
Zr119       O121   2.434       .  S
Zr119       O752   2.436       .  S
Zr119       O759   2.371   1_455  S
Zr119       O760   2.383   1_455  S
Zr119       O447   2.379       .  S
Zr119       O445   2.364       .  S
O120       Zr751   2.435       .  S
O120        H140   0.990       .  S
O120        H777   0.990       .  S
O121        H457   0.990       .  S
Zr122       O123   2.435       .  S
Zr122       O124   2.436       .  S
Zr122       O128   2.367       .  S
Zr122       O127   2.366       .  S
Zr122       O132   2.375       .  S
Zr122       O130   2.369       .  S
O123        H139   0.990       .  S
O124        H138   0.990       .  S
O124        H148   0.990       .  S
Zr125       O743   2.431   1_455  S
Zr125       O421   2.379       .  S
Zr125       O760   2.384   1_455  S
Zr125       O762   2.385   1_455  S
Zr125       O447   2.385       .  S
Zr126       O729   2.421       .  S
Zr126       O430   2.430   1_545  S
Zr126       O738   2.384       .  S
Zr126       O443   2.381   1_545  S
Zr126       O761   2.377       .  S
Zr126       O448   2.380   1_545  S
O127       Zr751   2.369       .  S
O127       Zr442   2.382       .  S
O127        H135   0.966       .  S
O128       Zr751   2.381       .  S
O128       Zr757   2.380       .  S
O129       Zr435   2.367   1_545  S
O129       Zr758   2.376   1_455  S
O130       Zr418   2.364       .  S
O130       Zr757   2.381       .  S
O130        H134   0.965       .  S
O131       Zr435   2.379   1_545  S
O131       Zr441   2.383   1_545  S
O131        H136   0.966       .  S
O132       Zr418   2.378       .  S
O132       Zr442   2.380       .  S
H141        O437   0.990   1_545  S
H145        O752   0.990       .  S
H147        O735   0.990       .  S
C149        C150   1.408       .  A
C149        C786   1.412       .  A
C150        C151   1.399       .  A
C150        H155   1.083       .  S
C151        C784   1.411       .  A
C151        O472   1.372       .  S
C152        C153   1.408   1_655  A
C152        C783   1.411       .  A
C153        C154   1.401       .  A
C153        H157   1.083       .  S
C154        C781   1.410   1_455  A
C154        O158   1.372       .  S
O156        C467   1.372       .  S
O156        H160   0.992       .  S
O158        H159   0.992   1_455  S
C161        C162   1.405       .  A
C161       C1114   1.413       .  A
C162        C163   1.400       .  A
C162        H167   1.084       .  S
C163        C796   1.412       .  A
C163        O168   1.372       .  S
C164        C795   1.417       .  A
C164        C481   1.403   1_455  A
C165        C166   1.401       .  A
C165        C480   1.404       .  A
C165        H169   1.084   1_455  S
C166       C1109   1.417       .  A
C166        O170   1.372   1_455  S
O168        H172   0.992       .  S
O170        H171   0.992       .  S
C173        C174   1.406       .  A
C173        C178   1.416       .  A
C174        C175   1.397       .  A
C174        H179   1.083       .  S
C175        C176   1.411       .  A
C175        O180   1.372       .  S
C176        C177   1.404       .  A
C177        C178   1.403       .  A
C177        H181   1.084       .  S
C178        O182   1.371       .  S
O180        H184   0.992       .  S
O182        H183   0.992       .  S
C185        C186   1.409       .  A
C185        C190   1.408       .  A
C186        C187   1.406       .  A
C186        H191   1.083       .  S
C187        C188   1.408       .  A
C187        O192   1.371       .  S
C188        C189   1.403       .  A
C189        C190   1.397       .  A
C189        H193   1.084       .  S
C190        O194   1.372       .  S
O192        H196   0.992       .  S
O194        H195   0.992       .  S
C197        C198   1.403       .  A
C197        C202   1.405       .  A
C198        C199   1.401       .  A
C198        H203   1.084       .  S
C199        C200   1.411       .  A
C199        O204   1.371       .  S
C200        C201   1.406       .  A
C201        C202   1.396       .  A
C201        H205   1.083       .  S
C202        O206   1.372       .  S
O204        H208   0.992       .  S
O206        H207   0.992       .  S
C209        C210   1.401       .  A
C209        C214   1.406       .  A
C210        C211   1.395       .  A
C210        H215   1.084       .  S
C211        C212   1.410       .  A
C211        O216   1.372       .  S
C212        C213   1.405       .  A
C213        C214   1.400       .  A
C213        H217   1.083       .  S
C214        O218   1.372       .  S
O216        H220   0.992       .  S
O218        H219   0.992       .  S
C221        C222   1.404       .  A
C221        C226   1.411       .  A
C222        C223   1.395       .  A
C222        H227   1.084       .  S
C223        C224   1.415       .  A
C223        O228   1.372       .  S
C224        C225   1.405       .  A
C225        C226   1.400       .  A
C225        H229   1.083       .  S
C226        O230   1.370       .  S
O228        H232   0.992       .  S
O230        H231   0.992       .  S
C233        C234   1.404       .  A
C233        C238   1.410       .  A
C234        C235   1.398       .  A
C234        H239   1.084       .  S
C235        C236   1.406       .  A
C235        O240   1.372       .  S
C236        C237   1.404       .  A
C237        C238   1.399       .  A
C237        H241   1.084       .  S
C238        O242   1.372       .  S
O240        H244   0.992       .  S
O242        H243   0.992       .  S
C245        C246   1.405       .  A
C245        C250   1.410       .  A
C246        C247   1.405       .  A
C246        H251   1.083       .  S
C247        C248   1.411       .  A
C247        O252   1.371       .  S
C248        C249   1.401       .  A
C249        C250   1.395       .  A
C249        H253   1.084       .  S
C250        O254   1.372       .  S
O252        H256   0.992       .  S
O254        H255   0.992       .  S
C257        C258   1.406       .  A
C257        C262   1.415       .  A
C258        C259   1.396       .  A
C258        H263   1.083       .  S
C259        C260   1.412       .  A
C259        O264   1.372       .  S
C260        C261   1.404       .  A
C261        C262   1.405       .  A
C261        H265   1.083       .  S
C262        O266   1.372       .  S
O264        H268   0.992       .  S
O266        H267   0.992       .  S
C269        C270   1.403       .  A
C269        C274   1.410       .  A
C270        C271   1.396       .  A
C270        H275   1.084       .  S
C271        C272   1.413       .  A
C271        O276   1.372       .  S
C272        C273   1.409       .  A
C273        C274   1.408       .  A
C273        H277   1.083       .  S
C274        O278   1.372       .  S
O276        H280   0.992       .  S
O278        H279   0.992       .  S
C281        C282   1.403       .  A
C281        C286   1.409   1_556  A
C282        C283   1.396       .  A
C282        H287   1.084       .  S
C283        C284   1.408       .  A
C283        O288   1.372       .  S
C284        C285   1.405   1_556  A
C285        C286   1.403       .  A
C285        H289   1.084       .  S
C286        O290   1.371       .  S
O288        H292   0.992       .  S
O290        H291   0.992       .  S
C293        C294   1.401       .  A
C293        C298   1.407       .  A
C294        C295   1.397   1_556  A
C294        H299   1.084   1_556  S
C295        C296   1.409   1_554  A
C295        O300   1.373       .  S
C296        C297   1.409       .  A
C297        C298   1.406       .  A
C297        H301   1.083       .  S
C298        O302   1.371       .  S
O300        H304   0.992       .  S
O302        H303   0.992       .  S
C305        C306   1.405       .  A
C305        C310   1.415       .  A
C306        C307   1.397       .  A
C306        H311   1.083       .  S
C307        C308   1.414       .  A
C307        O312   1.372       .  S
C308        C309   1.407       .  A
C309        C310   1.405       .  A
C309        H313   1.083       .  S
C310        O314   1.371       .  S
O312        H316   0.992       .  S
O314        H315   0.992   1_556  S
C317        N318   1.362       .  A
C317        N322   1.359       .  A
C317        C597   1.475       .  S
N318        C319   1.358       .  A
C319        N320   1.355       .  A
C319        C621   1.490       .  S
N320        C321   1.355       .  A
C321        N322   1.356       .  A
C321        C612   1.475       .  S
C323        N324   1.362       .  A
C323        N328   1.360       .  A
C323        C561   1.477       .  S
N324        C325   1.360       .  A
C325        N326   1.356       .  A
C325        C588   1.489       .  S
N326        C327   1.356       .  A
C327        N328   1.357       .  A
C327        C573   1.489       .  S
C329        N330   1.359       .  A
C329        N334   1.364       .  A
C329        C549   1.477       .  S
N330        C331   1.353       .  A
C331        N332   1.351       .  A
C331        C540   1.482       .  S
N332        C333   1.356       .  A
C333        N334   1.362       .  A
C333        C528   1.483       .  S
C335        N336   1.361       .  A
C335        N340   1.357       .  A
C335        C516   1.473       .  S
N336        C337   1.361       .  A
C337        N338   1.357       .  A
C337        C501   1.485       .  S
N338        C339   1.354       .  A
C339        N340   1.354       .  A
C339        C489   1.482       .  S
O341       Zr353   2.439       .  S
O341        C343   1.288       .  A
O342       Zr379   2.434   1_545  S
C343        C624   1.485       .  S
O344       Zr356   2.431       .  S
O344        C346   1.286       .  A
O345       Zr380   2.421       .  S
O345        C346   1.287       .  A
C346        C600   1.471       .  S
O347       Zr356   2.450   1_554  S
O347        C665   1.290       .  A
O348       Zr379   2.404   1_554  S
O348        C349   1.282   1_565  A
C349        C480   1.487       .  S
C349        O663   1.291   1_455  A
O350       Zr353   2.432       .  S
O350        C352   1.287       .  A
O351      Zr1012   2.424   1_455  S
O351        C352   1.285       .  A
C352        C525   1.475       .  S
Zr353       O354   2.434       .  S
Zr353       O355   2.436       .  S
Zr353       O359   2.367       .  S
Zr353       O360   2.368       .  S
Zr353       O383   2.367       .  S
Zr353       O385   2.368       .  S
O354        H397   0.990       .  S
O355        H396   0.990       .  S
O355        H400   0.990       .  S
Zr356       O989   2.436   1_556  S
Zr356       O992   2.374       .  S
Zr356       O991   2.366       .  S
O357       Zr988   2.436   1_454  S
O357        H398   0.990   1_554  S
O357       H1033   0.990   1_455  S
O358        H391   0.990   1_545  S
O359       Zr988   2.372   1_455  S
O360       Zr988   2.374   1_455  S
O360      Zr1012   2.385   1_455  S
O360        H387   0.964       .  S
O361       Zr373   2.448       .  S
O361        C995   1.289   1_455  A
O362       Zr380   2.411       .  S
C363        C465   1.486       .  S
C363        O993   1.289       .  A
O364       Zr376   2.421       .  S
O364        C366   1.285       .  A
O365      Zr1011   2.421       .  S
O365        C366   1.285       .  A
C366        C609   1.467       .  S
O367       Zr376   2.432       .  S
O367        C369   1.287       .  A
O368        C369   1.286       .  A
C369        C537   1.489       .  S
O370       Zr373   2.445       .  S
O370        C372   1.288       .  A
O371       Zr379   2.407       .  S
O371        C372   1.284       .  A
C372        C552   1.475       .  S
Zr373      O1006   2.435   1_455  S
Zr373       O375   2.435       .  S
Zr373      O1013   2.371   1_455  S
Zr373      O1014   2.374   1_455  S
O374      Zr1005   2.434       .  S
O374        H394   0.990       .  S
O374       H1031   0.990       .  S
Zr376       O377   2.434       .  S
Zr376       O378   2.436       .  S
Zr376       O382   2.371       .  S
Zr376       O381   2.365       .  S
Zr376       O386   2.371       .  S
Zr376       O384   2.367       .  S
O377        H393   0.990       .  S
O378        H392   0.990       .  S
O378        H402   0.991       .  S
Zr379       O997   2.421   1_455  S
Zr379      O1014   2.383   1_455  S
Zr379      O1016   2.383   1_455  S
Zr380       O983   2.425       .  S
Zr380       O992   2.382       .  S
Zr380      O1015   2.380       .  S
O381      Zr1005   2.370       .  S
O381        H389   0.965       .  S
O382      Zr1005   2.371       .  S
O382      Zr1011   2.379       .  S
O383      Zr1012   2.379   1_455  S
O384      Zr1011   2.389       .  S
O384        H388   0.965       .  S
O385        H390   0.966       .  S
H399       O1006   0.990       .  S
H401        O989   0.990       .  S
O403       Zr415   2.437       .  S
O403        C405   1.288       .  A
O404       Zr441   2.440   1_545  S
C405        C585   1.481       .  S
O406       Zr418   2.445       .  S
O406        C408   1.288       .  A
O407       Zr442   2.412       .  S
O407        C408   1.285       .  A
C408        C564   1.475       .  S
O409       Zr418   2.454       .  S
O409        C727   1.291       .  A
O410       Zr441   2.418       .  S
O410        C411   1.287   1_455  A
C411        C468   1.490       .  S
C411        O725   1.288   1_565  A
O412       Zr415   2.432       .  S
O412        C414   1.287       .  A
O413      Zr1074   2.419   1_455  S
O413        C414   1.285       .  A
C414        C492   1.470       .  S
Zr415       O416   2.434       .  S
Zr415       O417   2.436       .  S
Zr415       O421   2.367       .  S
Zr415       O422   2.374       .  S
Zr415       O445   2.366       .  S
Zr415       O447   2.367       .  S
O416        H459   0.990       .  S
O417        H458   0.990       .  S
O417        H462   0.990       .  S
Zr418      O1051   2.434       .  S
Zr418      O1054   2.373       .  S
Zr418      O1053   2.371       .  S
O419      Zr1050   2.435   1_455  S
O419        H460   0.990       .  S
O419       H1095   0.990   1_455  S
O420        H453   0.990       .  S
O421      Zr1050   2.370   1_455  S
O422      Zr1050   2.371   1_455  S
O422      Zr1074   2.384   1_455  S
O422        H449   0.966       .  S
O423       Zr435   2.462       .  S
O423       C1057   1.293       .  A
O424       Zr442   2.411       .  S
C425        C477   1.491       .  S
C425       O1055   1.291   1_545  A
O426       Zr438   2.434       .  S
O426        C428   1.287       .  A
O427      Zr1073   2.423       .  S
O427        C428   1.286       .  A
C428        C576   1.481       .  S
O429       Zr438   2.429       .  S
O429        C431   1.286       .  A
O430        C431   1.286       .  A
C431        C504   1.474       .  S
O432       Zr435   2.446       .  S
O432        C434   1.289       .  A
O433       Zr441   2.418       .  S
O433        C434   1.286       .  A
C434        C513   1.476       .  S
Zr435      O1068   2.436       .  S
Zr435       O437   2.436       .  S
Zr435      O1075   2.372   1_455  S
Zr435      O1076   2.378   1_455  S
O436      Zr1067   2.435       .  S
O436        H456   0.990       .  S
O436       H1093   0.990       .  S
Zr438       O439   2.435       .  S
Zr438       O440   2.436       .  S
Zr438       O444   2.372       .  S
Zr438       O443   2.366       .  S
Zr438       O448   2.372       .  S
Zr438       O446   2.364       .  S
O439        H455   0.990       .  S
O440        H454   0.990       .  S
O440        H464   0.990       .  S
Zr441      O1059   2.427   1_455  S
Zr441      O1076   2.384   1_455  S
Zr441      O1078   2.383   1_455  S
Zr442      O1045   2.427       .  S
Zr442      O1054   2.384       .  S
Zr442      O1077   2.379       .  S
O443      Zr1067   2.366       .  S
O443        H451   0.966       .  S
O444      Zr1067   2.382       .  S
O444      Zr1073   2.386       .  S
O445      Zr1074   2.376   1_455  S
O446      Zr1073   2.385       .  S
O446        H450   0.965       .  S
O447        H452   0.967       .  S
H461       O1068   0.990       .  S
H463       O1051   0.990       .  S
C465        C466   1.406   1_565  A
C465       C1102   1.412       .  A
C466        C467   1.399       .  A
C466        H471   1.084       .  S
C467       C1100   1.413   1_545  A
C468       C1099   1.414   1_565  A
C468        C469   1.407   1_655  A
C469        C470   1.398       .  A
C469        H473   1.083       .  S
C470       C1097   1.413   1_455  A
C470        O474   1.372       .  S
O472        H476   0.992       .  S
O474        H475   0.992       .  S
C477        C478   1.406   1_545  A
C477        C798   1.415       .  A
C478        C479   1.401       .  A
C478        H483   1.083       .  S
C479       C1112   1.417   1_565  A
C479        O484   1.372       .  S
C480       C1111   1.416   1_545  A
C481        C482   1.399       .  A
C481        H485   1.083       .  S
C482        C793   1.417   1_655  A
C482        O486   1.372       .  S
O484        H488   0.992       .  S
O486        H487   0.992       .  S
C489        C490   1.406       .  A
C489        C494   1.414       .  A
C490        C491   1.397       .  A
C490        H495   1.083       .  S
C491        C492   1.407       .  A
C491        O496   1.373       .  S
C492        C493   1.401       .  A
C493        C494   1.399       .  A
C493        H497   1.084       .  S
C494        O498   1.371       .  S
O496        H500   0.992       .  S
O498        H499   0.991       .  S
C501        C502   1.409       .  A
C501        C506   1.412       .  A
C502        C503   1.404       .  A
C502        H507   1.083       .  S
C503        C504   1.407       .  A
C503        O508   1.371       .  S
C504        C505   1.401       .  A
C505        C506   1.394       .  A
C505        H509   1.084       .  S
C506        O510   1.373       .  S
O508        H512   0.991       .  S
O510        H511   0.993       .  S
C513        C514   1.406       .  A
C513        C518   1.408       .  A
C514        C515   1.403       .  A
C514        H519   1.084       .  S
C515        C516   1.408       .  A
C515        O520   1.372       .  S
C516        C517   1.402       .  A
C517        C518   1.395       .  A
C517        H521   1.084       .  S
C518        O522   1.372       .  S
O520        H524   0.992       .  S
O522        H523   0.992       .  S
C525        C526   1.401       .  A
C525        C530   1.409       .  A
C526        C527   1.392       .  A
C526        H531   1.084       .  S
C527        C528   1.412       .  A
C527        O532   1.372       .  S
C528        C529   1.408       .  A
C529        C530   1.406       .  A
C529        H533   1.083       .  S
C530        O534   1.372       .  S
O532        H536   0.992       .  S
O534        H535   0.992       .  S
C537        C538   1.407       .  A
C537        C542   1.413       .  A
C538        C539   1.395       .  A
C538        H543   1.083       .  S
C539        C540   1.411       .  A
C539        O544   1.372       .  S
C540        C541   1.405       .  A
C541        C542   1.403       .  A
C541        H545   1.083       .  S
C542        O546   1.371       .  S
O544        H548   0.992       .  S
O546        H547   0.992       .  S
C549        C550   1.404       .  A
C549        C554   1.411       .  A
C550        C551   1.403       .  A
C550        H555   1.083       .  S
C551        C552   1.410       .  A
C551        O556   1.372       .  S
C552        C553   1.402       .  A
C553        C554   1.394       .  A
C553        H557   1.084       .  S
C554        O558   1.372       .  S
O556        H560   0.992       .  S
O558        H559   0.992       .  S
C561        C562   1.405       .  A
C561        C566   1.409       .  A
C562        C563   1.404       .  A
C562        H567   1.084       .  S
C563        C564   1.409       .  A
C563        O568   1.371       .  S
C564        C565   1.402       .  A
C565        C566   1.395       .  A
C565        H569   1.084       .  S
C566        O570   1.372       .  S
O568        H572   0.992       .  S
O570        H571   0.992       .  S
C573        C574   1.406       .  A
C573        C578   1.415       .  A
C574        C575   1.393       .  A
C574        H579   1.083       .  S
C575        C576   1.410       .  A
C575        O580   1.372       .  S
C576        C577   1.404       .  A
C577        C578   1.405       .  A
C577        H581   1.083       .  S
C578        O582   1.372       .  S
O580        H584   0.992       .  S
O582        H583   0.992       .  S
C585        C586   1.403       .  A
C585        C590   1.409       .  A
C586        C587   1.396       .  A
C586        H591   1.084       .  S
C587        C588   1.413       .  A
C587        O592   1.372       .  S
C588        C589   1.409       .  A
C589        C590   1.405       .  A
C589        H593   1.083       .  S
C590        O594   1.372       .  S
O592        H596   0.992       .  S
O594        H595   0.992       .  S
C597        C598   1.403       .  A
C597        C602   1.411       .  A
C598        C599   1.395       .  A
C598        H603   1.084       .  S
C599        C600   1.405       .  A
C599        O604   1.370       .  S
C600        C601   1.404       .  A
C601        C602   1.400       .  A
C601        H605   1.084   1_556  S
C602        O606   1.372   1_556  S
O604        H608   0.992       .  S
O606        H607   0.992       .  S
C609        C610   1.401   1_556  A
C609        C614   1.406       .  A
C610        C611   1.393       .  A
C610        H615   1.084       .  S
C611        C612   1.408   1_554  A
C611        O616   1.373       .  S
C612        C613   1.407       .  A
C613        C614   1.402       .  A
C613        H617   1.083       .  S
C614        O618   1.372       .  S
O616        H620   0.992       .  S
O618        H619   0.992       .  S
C621        C622   1.407       .  A
C621        C626   1.413       .  A
C622        C623   1.395       .  A
C622        H627   1.083       .  S
C623        C624   1.410       .  A
C623        O628   1.372       .  S
C624        C625   1.407       .  A
C625        C626   1.404       .  A
C625        H629   1.084       .  S
C626        O630   1.371       .  S
O628        H632   0.992       .  S
O630        H631   0.992       .  S
C633        N634   1.360       .  A
C633        N638   1.356       .  A
C633        C913   1.465       .  S
N634        C635   1.361       .  A
C635        N636   1.359       .  A
C635        C937   1.493       .  S
N636        C637   1.358       .  A
C637        N638   1.354       .  A
C637        C928   1.482       .  S
C639        N640   1.362       .  A
C639        N644   1.358       .  A
C639        C877   1.478       .  S
N640        C641   1.362       .  A
C641        N642   1.357       .  A
C641        C904   1.485       .  S
N642        C643   1.356       .  A
C643        N644   1.354       .  A
C643        C889   1.487       .  S
C645        N646   1.361       .  A
C645        N650   1.360       .  A
C645        C865   1.474       .  S
N646        C647   1.359       .  A
C647        N648   1.352       .  A
C647        C856   1.486       .  S
N648        C649   1.352       .  A
C649        N650   1.355       .  A
C649        C844   1.475       .  S
C651        N652   1.364       .  A
C651        N656   1.361       .  A
C651        C832   1.486       .  S
N652        C653   1.360       .  A
C653        N654   1.355       .  A
C653        C817   1.484       .  S
N654        C655   1.354       .  A
C655        N656   1.356       .  A
C655        C805   1.489       .  S
O657       Zr669   2.442       .  S
O657        C659   1.288       .  A
O658       Zr695   2.421       .  S
O658        C975   1.286       .  A
C659        C940   1.484       .  S
C659        O974   1.286       .  A
O660       Zr672   2.444       .  S
O660        C662   1.288       .  A
O661       Zr696   2.408       .  S
O661        C662   1.285       .  A
C662        C916   1.479       .  S
O663       Zr672   2.457   1_554  S
O664       Zr695   2.418   1_554  S
O664        C665   1.285       .  A
C665        C796   1.485       .  S
O666       Zr669   2.432       .  S
O666        C668   1.287       .  A
O667        C668   1.283       .  A
C668        C841   1.464       .  S
Zr669       O670   2.436       .  S
Zr669       O671   2.436       .  S
Zr669       O675   2.366       .  S
Zr669       O676   2.371       .  S
Zr669       O699   2.367       .  S
Zr669       O701   2.369       .  S
O670        H713   0.990       .  S
O671        H712   0.990       .  S
O671        H716   0.990       .  S
Zr672       O990   2.434   1_556  S
Zr672      O1016   2.367   1_545  S
Zr672      O1018   2.380   1_545  S
O673        H714   0.990       .  S
O674       Zr988   2.435   1_554  S
O674        H707   0.990       .  S
O675      Zr1011   2.381   1_545  S
O676        H703   0.964       .  S
O677       Zr689   2.455       .  S
O678       Zr696   2.412   1_565  S
O678        C995   1.285       .  A
C679        C781   1.485       .  S
C679        O994   1.285       .  A
O680       Zr692   2.436       .  S
O680        C682   1.287       .  A
O681        C682   1.285       .  A
C682        C925   1.471       .  S
O683       Zr692   2.432       .  S
O683        C685   1.287       .  A
O684      Zr1012   2.421       .  S
O684        C685   1.285       .  A
C685        C853   1.486       .  S
O686       Zr689   2.443       .  S
O686        C688   1.288       .  A
O687       Zr695   2.406       .  S
O687        C688   1.283       .  A
C688        C868   1.467       .  S
Zr689       O691   2.434       .  S
Zr689      O1017   2.374       .  S
Zr689      O1015   2.370       .  S
O690        H710   0.990   1_655  S
O691       H1027   0.990       .  S
Zr692       O693   2.435       .  S
Zr692       O694   2.437       .  S
Zr692       O698   2.369       .  S
Zr692       O697   2.368       .  S
Zr692       O702   2.377       .  S
Zr692       O700   2.369       .  S
O693        H709   0.990       .  S
O694        H708   0.990       .  S
O694        H718   0.990       .  S
Zr695       O991   2.378       .  S
Zr695      O1017   2.389       .  S
Zr696      O1000   2.420   1_545  S
Zr696      O1013   2.383   1_545  S
Zr696      O1018   2.381   1_545  S
O697      Zr1012   2.386       .  S
O697        H705   0.965       .  S
O699      Zr1005   2.366   1_545  S
O700       Zr988   2.365       .  S
O700        H704   0.965       .  S
O701      Zr1005   2.376   1_545  S
O701      Zr1011   2.379   1_545  S
O701        H706   0.967       .  S
O702       Zr988   2.380       .  S
O702      Zr1012   2.383       .  S
H711       O1007   0.990   1_545  S
O719       Zr731   2.432       .  S
O719        C721   1.287       .  A
O720       Zr757   2.426       .  S
O720       C1037   1.286       .  A
C721        C901   1.479       .  S
C721       O1036   1.287       .  A
O722       Zr734   2.446       .  S
O722        C724   1.288       .  A
O723       Zr758   2.411       .  S
O723        C724   1.285       .  A
C724        C880   1.480       .  S
O725       Zr734   2.445       .  S
O726       Zr757   2.414       .  S
O726        C727   1.285       .  A
C727        C784   1.490       .  S
O728       Zr731   2.436       .  S
O728        C730   1.288       .  A
O729        C730   1.286       .  A
C730        C808   1.478       .  S
Zr731       O732   2.434       .  S
Zr731       O733   2.434       .  S
Zr731       O737   2.369       .  S
Zr731       O738   2.369       .  S
Zr731       O761   2.366       .  S
Zr731       O763   2.366       .  S
O732        H775   0.990       .  S
O733        H774   0.990       .  S
O733        H778   0.990       .  S
Zr734      O1052   2.434   1_545  S
Zr734      O1078   2.368   1_545  S
Zr734      O1080   2.372   1_545  S
O735        H776   0.990       .  S
O736      Zr1050   2.434       .  S
O736        H769   0.990       .  S
O737      Zr1073   2.384   1_545  S
O738        H765   0.966       .  S
O739       Zr751   2.454       .  S
O740       Zr758   2.399       .  S
O740       C1057   1.282   1_645  A
C741        C793   1.489       .  S
C741       O1056   1.282   1_455  A
O742       Zr754   2.429       .  S
O742        C744   1.286       .  A
O743        C744   1.288       .  A
C744        C892   1.482       .  S
O745       Zr754   2.440       .  S
O745        C747   1.288       .  A
O746      Zr1074   2.431       .  S
O746        C747   1.286       .  A
C747        C820   1.480       .  S
O748       Zr751   2.441       .  S
O748        C750   1.287       .  A
O749       Zr757   2.416       .  S
O749        C750   1.285       .  A
C750        C829   1.467       .  S
Zr751       O753   2.435       .  S
Zr751      O1079   2.375       .  S
Zr751      O1077   2.365       .  S
O752        H772   0.990   1_455  S
O753       H1089   0.990       .  S
Zr754       O755   2.435       .  S
Zr754       O756   2.437       .  S
Zr754       O760   2.371       .  S
Zr754       O759   2.365       .  S
Zr754       O764   2.372       .  S
Zr754       O762   2.372       .  S
O755        H771   0.990       .  S
O756        H770   0.990       .  S
O756        H780   0.990       .  S
Zr757      O1053   2.382       .  S
Zr757      O1079   2.388       .  S
Zr758      O1062   2.427   1_545  S
Zr758      O1075   2.384   1_545  S
Zr758      O1080   2.375   1_545  S
O759      Zr1074   2.379       .  S
O759        H767   0.966       .  S
O761      Zr1067   2.366   1_545  S
O762      Zr1050   2.365       .  S
O762        H766   0.965       .  S
O763      Zr1067   2.376   1_545  S
O763      Zr1073   2.384   1_545  S
O763        H768   0.966       .  S
O764      Zr1050   2.376       .  S
O764      Zr1074   2.377       .  S
H773       O1069   0.990   1_545  S
C781        C782   1.407       .  A
C782        C783   1.398       .  A
C782        H787   1.084       .  S
C783       O1104   1.372       .  S
C784        C785   1.408       .  A
C785        C786   1.401       .  A
C785        H789   1.083       .  S
C786        O790   1.372       .  S
O788       C1099   1.372       .  S
O788        H792   0.992       .  S
O790        H791   0.992       .  S
C793        C794   1.404       .  A
C794        C795   1.400       .  A
C794        H799   1.083       .  S
C795        O800   1.372       .  S
C796       C1113   1.405       .  A
C797       C1112   1.405       .  A
C797        C798   1.400       .  A
C797        H801   1.083       .  S
C798        O802   1.372       .  S
O800        H804   0.992       .  S
O802        H803   0.992       .  S
C805        C806   1.407       .  A
C805        C810   1.415       .  A
C806        C807   1.396       .  A
C806        H811   1.082       .  S
C807        C808   1.408       .  A
C807        O812   1.373       .  S
C808        C809   1.404       .  A
C809        C810   1.402       .  A
C809        H813   1.084       .  S
C810        O814   1.371       .  S
O812        H816   0.992       .  S
O814        H815   0.992       .  S
C817        C818   1.407       .  A
C817        C822   1.411       .  A
C818        C819   1.407       .  A
C818        H823   1.083       .  S
C819        C820   1.410       .  A
C819        O824   1.371       .  S
C820        C821   1.402       .  A
C821        C822   1.396       .  A
C821        H825   1.084       .  S
C822        O826   1.373       .  S
O824        H828   0.992       .  S
O826        H827   0.992       .  S
C829        C830   1.400       .  A
C829        C834   1.404       .  A
C830        C831   1.400       .  A
C830        H835   1.084       .  S
C831        C832   1.414       .  A
C831        O836   1.371       .  S
C832        C833   1.409       .  A
C833        C834   1.397       .  A
C833        H837   1.083       .  S
C834        O838   1.373       .  S
O836        H840   0.992       .  S
O838        H839   0.991       .  S
C841        C842   1.400       .  A
C841        C846   1.407       .  A
C842        C843   1.392       .  A
C842        H847   1.084       .  S
C843        C844   1.411       .  A
C843        O848   1.372       .  S
C844        C845   1.406       .  A
C845        C846   1.401       .  A
C845        H849   1.083       .  S
C846        O850   1.372       .  S
O848        H852   0.992       .  S
O850        H851   0.992       .  S
C853        C854   1.404       .  A
C853        C858   1.412       .  A
C854        C855   1.392       .  A
C854        H859   1.084       .  S
C855        C856   1.414       .  A
C855        O860   1.372       .  S
C856        C857   1.406       .  A
C857        C858   1.403       .  A
C857        H861   1.083       .  S
C858        O862   1.370       .  S
O860        H864   0.992       .  S
O862        H863   0.992       .  S
C865        C866   1.404       .  A
C865        C870   1.410       .  A
C866        C867   1.397       .  A
C866        H871   1.084       .  S
C867        C868   1.407       .  A
C867        O872   1.372       .  S
C868        C869   1.402       .  A
C869        C870   1.397       .  A
C869        H873   1.084       .  S
C870        O874   1.372       .  S
O872        H876   0.992       .  S
O874        H875   0.992       .  S
C877        C878   1.404       .  A
C877        C882   1.409       .  A
C878        C879   1.404       .  A
C878        H883   1.083       .  S
C879        C880   1.412       .  A
C879        O884   1.371       .  S
C880        C881   1.403       .  A
C881        C882   1.395       .  A
C881        H885   1.084       .  S
C882        O886   1.372       .  S
O884        H888   0.992       .  S
O886        H887   0.992       .  S
C889        C890   1.405       .  A
C889        C894   1.414       .  A
C890        C891   1.394       .  A
C890        H895   1.083       .  S
C891        C892   1.412       .  A
C891        O896   1.372       .  S
C892        C893   1.403       .  A
C893        C894   1.403       .  A
C893        H897   1.083       .  S
C894        O898   1.372       .  S
O896        H900   0.992       .  S
O898        H899   0.992       .  S
C901        C902   1.403       .  A
C901        C906   1.409       .  A
C902        C903   1.397       .  A
C902        H907   1.084       .  S
C903        C904   1.413       .  A
C903        O908   1.372       .  S
C904        C905   1.407       .  A
C905        C906   1.403       .  A
C905        H909   1.083       .  S
C906        O910   1.372       .  S
O908        H912   0.992       .  S
O910        H911   0.992       .  S
C913        C914   1.401   1_556  A
C913        C918   1.404       .  A
C914        C915   1.403   1_554  A
C914        H919   1.084       .  S
C915        C916   1.413       .  A
C915        O920   1.372   1_556  S
C916        C917   1.405       .  A
C917        C918   1.393       .  A
C917        H921   1.083       .  S
C918        O922   1.372       .  S
O920        H924   0.992       .  S
O922        H923   0.992       .  S
C925        C926   1.401       .  A
C925        C930   1.406       .  A
C926        C927   1.396   1_556  A
C926        H931   1.084       .  S
C927        C928   1.409   1_554  A
C927        O932   1.372       .  S
C928        C929   1.410       .  A
C929        C930   1.403       .  A
C929        H933   1.083       .  S
C930        O934   1.372       .  S
O932        H936   0.992       .  S
O934        H935   0.992   1_655  S
C937        C938   1.408       .  A
C937        C942   1.415       .  A
C938        C939   1.398       .  A
C938        H943   1.083   1_556  S
C939        C940   1.409       .  A
C939        O944   1.373       .  S
C940        C941   1.405       .  A
C941        C942   1.403       .  A
C941        H945   1.084       .  S
C942        O946   1.371       .  S
O944        H948   0.992       .  S
O946        H947   0.992   1_556  S
C949        N950   1.358       .  A
C949        N954   1.362       .  A
C949       C1229   1.477       .  S
N950        C951   1.356       .  A
C951        N952   1.355       .  A
C951       C1253   1.487       .  S
N952        C953   1.356       .  A
C953        N954   1.360       .  A
C953       C1244   1.482       .  S
C955        N956   1.361       .  A
C955        N960   1.361       .  A
C955       C1193   1.475       .  S
N956        C957   1.360       .  A
C957        N958   1.355       .  A
C957       C1220   1.484       .  S
N958        C959   1.355       .  A
C959        N960   1.356       .  A
C959       C1205   1.488       .  S
C961        N962   1.363       .  A
C961        N966   1.364       .  A
C961       C1181   1.486       .  S
N962        C963   1.359       .  A
C963        N964   1.354       .  A
C963       C1172   1.493       .  S
N964        C965   1.356       .  A
C965        N966   1.361       .  A
C965       C1160   1.488       .  S
C967        N968   1.363       .  A
C967        N972   1.359       .  A
C967       C1148   1.480       .  S
N968        C969   1.362       .  A
C969        N970   1.357       .  A
C969       C1133   1.485       .  S
N970        C971   1.355       .  A
C971        N972   1.355       .  A
C971       C1121   1.489       .  S
O973       Zr985   2.431       .  S
O973        C975   1.287       .  A
O974      Zr1011   2.423   1_545  S
C975       C1256   1.479       .  S
O976       Zr988   2.446       .  S
O976        C978   1.289       .  A
O977      Zr1012   2.418       .  S
O977        C978   1.285       .  A
C978       C1232   1.475       .  S
O979       Zr988   2.459   1_554  S
O980      Zr1011   2.411   1_554  S
O980        C981   1.284   1_565  A
C981       C1112   1.492       .  S
O982       Zr985   2.444       .  S
O982        C984   1.289       .  A
O983        C984   1.286       .  A
C984       C1157   1.479       .  S
Zr985       O986   2.435       .  S
Zr985       O987   2.435       .  S
Zr985       O991   2.373       .  S
Zr985       O992   2.364       .  S
Zr985      O1015   2.363       .  S
Zr985      O1017   2.373       .  S
O986       H1029   0.990       .  S
O987       H1028   0.990       .  S
O987       H1032   0.990       .  S
O989       H1030   0.990       .  S
O990       H1023   0.990   1_545  S
O992       H1019   0.964       .  S
O993      Zr1005   2.443       .  S
O994      Zr1012   2.409       .  S
C995       C1097   1.490       .  S
O996      Zr1008   2.449       .  S
O996        C998   1.290       .  A
O997        C998   1.285       .  A
C998       C1241   1.472       .  S
O999      Zr1008   2.447       .  S
O999       C1001   1.290       .  A
O1000      C1001   1.285       .  A
C1001      C1169   1.481       .  S
O1002     Zr1005   2.441       .  S
O1002      C1004   1.287       .  A
O1003     Zr1011   2.429       .  S
O1003      C1004   1.288       .  A
C1004      C1184   1.477       .  S
Zr1005     O1007   2.434       .  S
O1006      H1026   0.990   1_655  S
Zr1008     O1009   2.435       .  S
Zr1008     O1010   2.435       .  S
Zr1008     O1014   2.373       .  S
Zr1008     O1013   2.370       .  S
Zr1008     O1018   2.375       .  S
Zr1008     O1016   2.368       .  S
O1009      H1025   0.990       .  S
O1010      H1024   0.990       .  S
O1010      H1034   0.990       .  S
O1013      H1021   0.965       .  S
O1016      H1020   0.965       .  S
O1017      H1022   0.967       .  S
O1035     Zr1047   2.438       .  S
O1035      C1037   1.288       .  A
O1036     Zr1073   2.430   1_545  S
C1037      C1217   1.477       .  S
O1038     Zr1050   2.449       .  S
O1038      C1040   1.289       .  A
O1039     Zr1074   2.403       .  S
O1039      C1040   1.283       .  A
C1040      C1196   1.477       .  S
O1041     Zr1050   2.452       .  S
O1042     Zr1073   2.423       .  S
O1042      C1043   1.287       .  A
C1043      C1100   1.487       .  S
O1044     Zr1047   2.434       .  S
O1044      C1046   1.287       .  A
O1045      C1046   1.287       .  A
C1046      C1124   1.482       .  S
Zr1047     O1048   2.436       .  S
Zr1047     O1049   2.438       .  S
Zr1047     O1053   2.370       .  S
Zr1047     O1054   2.374       .  S
Zr1047     O1077   2.366       .  S
Zr1047     O1079   2.371       .  S
O1048      H1091   0.990       .  S
O1049      H1090   0.990       .  S
O1049      H1094   0.990       .  S
O1051      H1092   0.990       .  S
O1052      H1085   0.990       .  S
O1054      H1081   0.966       .  S
O1055     Zr1067   2.450       .  S
O1056     Zr1074   2.403       .  S
C1057      C1109   1.487   1_565  S
O1058     Zr1070   2.440       .  S
O1058      C1060   1.289       .  A
O1059      C1060   1.287       .  A
C1060      C1208   1.484       .  S
O1061     Zr1070   2.444       .  S
O1061      C1063   1.289       .  A
O1062      C1063   1.286       .  A
C1063      C1136   1.477       .  S
O1064     Zr1067   2.430       .  S
O1064      C1066   1.285       .  A
O1065     Zr1073   2.433       .  S
O1065      C1066   1.289       .  A
C1066      C1145   1.473       .  S
Zr1067     O1069   2.436       .  S
O1068      H1088   0.990   1_455  S
Zr1070     O1071   2.435       .  S
Zr1070     O1072   2.435       .  S
Zr1070     O1076   2.372       .  S
Zr1070     O1075   2.367       .  S
Zr1070     O1080   2.372       .  S
Zr1070     O1078   2.368       .  S
O1071      H1087   0.990       .  S
O1072      H1086   0.990       .  S
O1072      H1096   0.990       .  S
O1075      H1083   0.966       .  S
O1078      H1082   0.965       .  S
O1079      H1084   0.967       .  S
C1097      C1098   1.408   1_565  A
C1098      C1099   1.400       .  A
C1098      H1103   1.083       .  S
C1100      C1101   1.406       .  A
C1101      C1102   1.399       .  A
C1101      H1105   1.084       .  S
C1102      O1106   1.372       .  S
O1104      H1108   0.992   1_655  S
O1106      H1107   0.992       .  S
C1109      C1110   1.402   1_545  A
C1110      C1111   1.398       .  A
C1110      H1115   1.083       .  S
C1111      O1116   1.372       .  S
C1113      C1114   1.399       .  A
C1113      H1117   1.084       .  S
C1114      O1118   1.372       .  S
O1116      H1120   0.992       .  S
O1118      H1119   0.992       .  S
C1121      C1122   1.406       .  A
C1121      C1126   1.415       .  A
C1122      C1123   1.397       .  A
C1122      H1127   1.083       .  S
C1123      C1124   1.411       .  A
C1123      O1128   1.373       .  S
C1124      C1125   1.404       .  A
C1125      C1126   1.401       .  A
C1125      H1129   1.084       .  S
C1126      O1130   1.371       .  S
O1128      H1132   0.992       .  S
O1130      H1131   0.992       .  S
C1133      C1134   1.408       .  A
C1133      C1138   1.412       .  A
C1134      C1135   1.405       .  A
C1134      H1139   1.083       .  S
C1135      C1136   1.409       .  A
C1135      O1140   1.371       .  S
C1136      C1137   1.401       .  A
C1137      C1138   1.398       .  A
C1137      H1141   1.084       .  S
C1138      O1142   1.373       .  S
O1140      H1144   0.992       .  S
O1142      H1143   0.992       .  S
C1145      C1146   1.405       .  A
C1145      C1150   1.405       .  A
C1146      C1147   1.401       .  A
C1146      H1151   1.084       .  S
C1147      C1148   1.409       .  A
C1147      O1152   1.371       .  S
C1148      C1149   1.407       .  A
C1149      C1150   1.397       .  A
C1149      H1153   1.083       .  S
C1150      O1154   1.372       .  S
O1152      H1156   0.992       .  S
O1154      H1155   0.992       .  S
C1157      C1158   1.401       .  A
C1157      C1162   1.410       .  A
C1158      C1159   1.395       .  A
C1158      H1163   1.084       .  S
C1159      C1160   1.413       .  A
C1159      O1164   1.371       .  S
C1160      C1161   1.408       .  A
C1161      C1162   1.407       .  A
C1161      H1165   1.083       .  S
C1162      O1166   1.372       .  S
O1164      H1168   0.991       .  S
O1166      H1167   0.992       .  S
C1169      C1170   1.401       .  A
C1169      C1174   1.410       .  A
C1170      C1171   1.396       .  A
C1170      H1175   1.084       .  S
C1171      C1172   1.416       .  A
C1171      O1176   1.370       .  S
C1172      C1173   1.409       .  A
C1173      C1174   1.405       .  A
C1173      H1177   1.083       .  S
C1174      O1178   1.372       .  S
O1176      H1180   0.992       .  S
O1178      H1179   0.992       .  S
C1181      C1182   1.407       .  A
C1181      C1186   1.413       .  A
C1182      C1183   1.404       .  A
C1182      H1187   1.083       .  S
C1183      C1184   1.409       .  A
C1183      O1188   1.372       .  S
C1184      C1185   1.401       .  A
C1185      C1186   1.399       .  A
C1185      H1189   1.084       .  S
C1186      O1190   1.371       .  S
O1188      H1192   0.992       .  S
O1190      H1191   0.992       .  S
C1193      C1194   1.404       .  A
C1193      C1198   1.408       .  A
C1194      C1195   1.402       .  A
C1194      H1199   1.084       .  S
C1195      C1196   1.410       .  A
C1195      O1200   1.371       .  S
C1196      C1197   1.404       .  A
C1197      C1198   1.395       .  A
C1197      H1201   1.084       .  S
C1198      O1202   1.372       .  S
O1200      H1204   0.992       .  S
O1202      H1203   0.992       .  S
C1205      C1206   1.406       .  A
C1205      C1210   1.413       .  A
C1206      C1207   1.393       .  A
C1206      H1211   1.083       .  S
C1207      C1208   1.410       .  A
C1207      O1212   1.372       .  S
C1208      C1209   1.406       .  A
C1209      C1210   1.406       .  A
C1209      H1213   1.083       .  S
C1210      O1214   1.372       .  S
O1212      H1216   0.992       .  S
O1214      H1215   0.992       .  S
C1217      C1218   1.402       .  A
C1217      C1222   1.409       .  A
C1218      C1219   1.396       .  A
C1218      H1223   1.084       .  S
C1219      C1220   1.413       .  A
C1219      O1224   1.372       .  S
C1220      C1221   1.407       .  A
C1221      C1222   1.403       .  A
C1221      H1225   1.083       .  S
C1222      O1226   1.372       .  S
O1224      H1228   0.992       .  S
O1226      H1227   0.992       .  S
C1229      C1230   1.406       .  A
C1229      C1234   1.408       .  A
C1230      C1231   1.400       .  A
C1230      H1235   1.084       .  S
C1231      C1232   1.407       .  A
C1231      O1236   1.371       .  S
C1232      C1233   1.404       .  A
C1233      C1234   1.399       .  A
C1233      H1237   1.084       .  S
C1234      O1238   1.371   1_556  S
O1236      H1240   0.992       .  S
O1238      H1239   0.992       .  S
C1241      C1242   1.401       .  A
C1241      C1246   1.407       .  A
C1242      C1243   1.398   1_556  A
C1242      H1247   1.084   1_556  S
C1243      C1244   1.412   1_554  A
C1243      O1248   1.373       .  S
C1244      C1245   1.407       .  A
C1245      C1246   1.402       .  A
C1245      H1249   1.083       .  S
C1246      O1250   1.371       .  S
O1248      H1252   0.992       .  S
O1250      H1251   0.992   1_655  S
C1253      C1254   1.407       .  A
C1253      C1258   1.414       .  A
C1254      C1255   1.397       .  A
C1254      H1259   1.083       .  S
C1255      C1256   1.410       .  A
C1255      O1260   1.373       .  S
C1256      C1257   1.404       .  A
C1257      C1258   1.399       .  A
C1257      H1261   1.084       .  S
C1258      O1262   1.371       .  S
O1260      H1264   0.992       .  S
O1262      H1263   0.992       .  S
