geometry optimzed in LAMMPS
_audit_creation_date              2020-12-01 
_audit_creation_method            'lammps2cif' 
_symmetry_space_group_name_H-M    'P1' 
_symmetry_Int_Tables_number       1 
_symmetry_cell_setting            triclinic 
loop_ 
_symmetry_equiv_pos_as_xyz 
  x,y,z 
_cell_length_a                    38.23562681 
_cell_length_b                    32.89922584607507 
_cell_length_c                    34.47867741133225 
_cell_angle_alpha                 87.80005461397563 
_cell_angle_beta                  81.30462355923123 
_cell_angle_gamma                 86.34078013448372 
loop_ 
_atom_site_label 
_atom_site_type_symbol 
_atom_site_fract_x 
_atom_site_fract_y 
_atom_site_fract_z 
_atom_site_charge 
O1          O  0.47274369  0.01908147  0.09990932    -0.81000
O2          O  0.46591127  0.49844231  0.92319967    -0.65700
O3          O  0.48472917  0.47910085  0.02823163    -1.12300
C4          C  0.07630184  0.06986748  0.98709178     1.05900
O5          O  0.02255230  0.48614357  0.90067310    -0.78900
O6          O  0.07414097  0.47764003  0.94643949    -0.66500
Ni7        Ni  0.44766628  0.48352651  0.07181014     1.34900
C8          C  0.07629584  0.46103915  0.97984103     0.84600
O9          O  0.43745620  0.45024999  0.98276638    -0.79500
O10         O  0.41992816  0.44744180  0.04796468    -0.89700
C11         C  0.49045456  0.49065753  0.89491305     0.84200
O12         O  0.42127402  0.02986040  0.05379527    -0.67900
O13         O  0.07332997  0.06002458  0.95228202    -0.87200
C14         C  0.41852227  0.04495098  0.01989405     0.85000
C15         C  0.41779880  0.43674622  0.01316016     1.06600
H16         H  0.99912259  0.05388724  0.97151407     0.38400
O17         O  0.00986102  0.02657962  0.97244218    -1.09900
O18         O  0.05661309  0.47282982  0.01095930    -0.66500
Ni19       Ni  0.02135772  0.01664132  0.02405236     1.26300
O20         O  0.43794920  0.03209455  0.98904476    -0.66800
O21         O  0.05781684  0.05507244  0.01776377    -0.79100
C22         C  0.00475382  0.01300826  0.10569236     0.84400
O23         O  0.02924826  0.00613513  0.07711629    -0.66200
Ni24       Ni  0.04661210  0.02293797  0.92859630     1.27400
Ni25       Ni  0.47359610  0.48868556  0.97648910     1.26100
H26         H  0.49524680  0.45164496  0.02950022     0.38900
N27         N  0.19486731  0.25734654  0.99339658    -0.36700
N28         N  0.24822323  0.31577141  0.99642831    -0.57300
N29         N  0.30217012  0.24885297  0.99614023    -0.36700
N30         N  0.24773776  0.19025141  0.99787779    -0.57300
C31         C  0.17386228  0.29191721  0.99908956     0.26800
C32         C  0.17361901  0.22568704  0.99957927     0.26800
C33         C  0.32099381  0.28029839  0.00379849     0.26800
C34         C  0.32076606  0.21404475  0.00443003     0.26800
C35         C  0.22086868  0.34218674  0.99049537     0.35500
C36         C  0.27731037  0.33768234  0.99245675     0.35500
C37         C  0.22025526  0.16863242  0.99178433     0.35500
C38         C  0.27671097  0.16410895  0.99408002     0.35500
C39         C  0.13878099  0.28211499  0.00845982    -0.22000
C40         C  0.13862529  0.24034707  0.00875557    -0.22000
C41         C  0.35233761  0.26526900  0.01613962    -0.22000
C42         C  0.35220254  0.22351142  0.01652279    -0.22000
C43         C  0.23255785  0.38114945  0.98316856    -0.23100
C44         C  0.26832490  0.37831002  0.98449777    -0.23100
C45         C  0.23177263  0.12846680  0.98444147    -0.23100
C46         C  0.26752904  0.12557484  0.98603018    -0.23100
C47         C  0.18512601  0.33215496  0.99387972    -0.18400
C48         C  0.18458816  0.18404861  0.99476459    -0.18400
C49         C  0.31095069  0.17390194  0.00000806    -0.18400
C50         C  0.31135909  0.32222130  0.99881674    -0.18400
H51         H  0.11561324  0.30290962  0.01414559     0.14500
H52         H  0.11530926  0.22279463  0.01467363     0.14500
H53         H  0.37320877  0.28256871  0.02407383     0.14500
H54         H  0.37296710  0.20252382  0.02478572     0.14500
H55         H  0.21687692  0.40883238  0.97796289     0.12800
H56         H  0.28565850  0.40337450  0.98052079     0.12800
H57         H  0.21600745  0.10373282  0.97889132     0.12800
H58         H  0.28476879  0.09819769  0.98192158     0.12800
H59         H  0.22144546  0.25562653  0.98147485     0.26000
H60         H  0.27974600  0.25098853  0.98247464     0.26000
C61         C  0.47073335  0.49018578  0.73176556     0.80100
N62         N  0.47378548  0.45508864  0.71145511    -0.78200
C63         C  0.47924890  0.45632055  0.67159978     0.82500
N64         N  0.48158393  0.49278207  0.65197927    -0.78200
C65         C  0.47778031  0.02808364  0.67168349     0.82600
N66         N  0.47197210  0.02674849  0.71164738    -0.79900
C67         C  0.03060497  0.00622411  0.26713936     0.80100
N68         N  0.02962452  0.04085251  0.28773040    -0.78200
C69         C  0.03059926  0.03885364  0.32696222     0.82500
N70         N  0.03218281  0.00189537  0.34569407    -0.78200
C71         C  0.03155061  0.46708429  0.32593659     0.82600
N72         N  0.03106829  0.46935823  0.28651611    -0.79900
N73         N  0.49729141  0.18716240  0.49953060    -0.36700
N74         N  0.00674140  0.25021802  0.43785723    -0.57300
N75         N  0.49684664  0.30988722  0.49871112    -0.36700
N76         N  0.48440432  0.24696676  0.55999363    -0.57300
C77         C  0.49593612  0.16578688  0.46710454     0.26800
C78         C  0.48372180  0.16414896  0.53095285     0.26800
C79         C  0.49491934  0.33395505  0.46626992     0.26800
C80         C  0.48359500  0.33237212  0.53021619     0.26800
C81         C  0.01895815  0.21720898  0.41667155     0.35500
C82         C  0.01817589  0.28313401  0.41608152     0.35500
C83         C  0.48754363  0.21303152  0.58285314     0.35500
C84         C  0.48774045  0.27885419  0.58239667     0.35500
C85         C  0.48099687  0.12895743  0.47799346    -0.22000
C86         C  0.47326610  0.12794159  0.51828475    -0.22000
C87         C  0.47978025  0.37201317  0.47729624    -0.22000
C88         C  0.47277937  0.37106266  0.51766772    -0.22000
C89         C  0.03792909  0.22915380  0.38102558    -0.23100
C90         C  0.03742908  0.27105521  0.38064660    -0.23100
C91         C  0.49231581  0.22340499  0.62018965    -0.23100
C92         C  0.49240035  0.26522893  0.61991406    -0.23100
C93         C  0.01146026  0.17672554  0.42851044    -0.18400
C94         C  0.48404232  0.17313214  0.57074523    -0.18400
C95         C  0.48435946  0.32010728  0.56991074    -0.18400
C96         C  0.01012059  0.32385411  0.42751311    -0.18400
H97         H  0.47701593  0.10480685  0.45894396     0.14500
H98         H  0.46212483  0.10289336  0.53629406     0.14500
H99         H  0.47527199  0.39815502  0.45826696     0.14500
H100        H  0.46177389  0.39628788  0.53578292     0.14500
H101        H  0.05073940  0.20972926  0.35777820     0.12800
H102        H  0.04985137  0.29036442  0.35708687     0.12800
H103        H  0.49512178  0.20303507  0.64506740     0.12800
H104        H  0.49524861  0.28351206  0.64455902     0.12800
H105        H  0.51142362  0.21298617  0.50040002     0.26000
H106        H  0.51110780  0.28198645  0.49960857     0.26000
C107        C  0.04788927  0.42078165  0.37969717    -0.26500
C108        C  0.02849583  0.42774516  0.34837229    -0.14500
C109        C  0.00457886  0.39876850  0.34129333     0.36100
C110        C  0.00006382  0.36397792  0.36633768    -0.25900
C111        C  0.01865870  0.35792086  0.39841508    -0.15100
C112        C  0.04346103  0.38606168  0.40452427     0.37200
N113        N  0.06336710  0.37966057  0.43664994    -0.89400
H114        H  0.06630273  0.44287665  0.38511752     0.18300
H115        H  0.98093932  0.34234510  0.36185926     0.18300
N116        N  0.98378924  0.40564315  0.30997468    -0.88400
H117        H  0.08020250  0.40333775  0.43746093     0.35700
H118        H  0.07958930  0.35304123  0.43142715     0.40800
H119        H  0.96680886  0.43144152  0.31658475     0.40400
H120        H  0.46761184  0.38141835  0.30872387     0.35300
C121        C  0.49946184  0.14245918  0.36910156    -0.26500
C122        C  0.01992313  0.14378729  0.39951548    -0.14500
C123        C  0.04563357  0.11171742  0.40415512     0.36100
C124        C  0.04883487  0.07828155  0.37968436    -0.25900
C125        C  0.02772387  0.07631913  0.34997094    -0.15100
C126        C  0.50308284  0.10904385  0.34420317     0.37200
N127        N  0.48084987  0.10751636  0.31424352    -0.89400
H128        H  0.47966468  0.16691004  0.36578402     0.18300
H129        H  0.06810992  0.05351524  0.38392999     0.18300
N130        N  0.06898057  0.11204193  0.43315782    -0.88400
H131        H  0.46430905  0.13404673  0.31382597     0.35700
H132        H  0.46428232  0.08344497  0.32166805     0.40800
H133        H  0.06621029  0.13938173  0.44798584     0.40400
H134        H  0.06210559  0.08880721  0.45393018     0.35300
C135        C  0.45395048  0.09811092  0.65540780    -0.26500
C136        C  0.48113638  0.06729161  0.64919480    -0.14500
C137        C  0.50996047  0.07269950  0.61906882     0.36100
C138        C  0.51064603  0.10831767  0.59528915    -0.25900
C139        C  0.48269211  0.13835149  0.60006136    -0.15100
C140        C  0.45381237  0.13311850  0.63061739     0.37200
N141        N  0.42346584  0.16158805  0.63656773    -0.89400
H142        H  0.43160002  0.09387462  0.67828352     0.18300
H143        H  0.53273099  0.11226908  0.57200817     0.18300
N144        N  0.53830671  0.04174576  0.61248210    -0.88400
H145        H  0.40132842  0.14611364  0.63241988     0.35700
H146        H  0.42530083  0.18539200  0.61565667     0.40800
H147        H  0.55095586  0.03960299  0.63738789     0.40400
H148        H  0.55728561  0.05014267  0.58891212     0.35300
C149        C  0.45291575  0.39432713  0.65238505    -0.26500
C150        C  0.48214835  0.41856902  0.64926401    -0.14500
C151        C  0.51282316  0.40807234  0.62249516     0.36100
C152        C  0.51290759  0.37538740  0.59778402    -0.29000
C153        C  0.48302442  0.35245658  0.59923088    -0.15100
C154        C  0.45286075  0.36139389  0.62761904     0.37200
N155        N  0.42139260  0.33898821  0.63121436    -0.89400
H156        H  0.42937528  0.40207369  0.67308513     0.18300
H157        H  0.03637104  0.36811009  0.57679519     0.18300
N158        N  0.04444595  0.42969056  0.62023540    -0.88400
H159        H  0.41852526  0.32400562  0.65870887     0.35700
H160        H  0.42344178  0.31656254  0.61028788     0.40800
H161        H  0.55201761  0.42910043  0.64816406     0.40400
H162        H  0.03894001  0.45991128  0.61175430     0.35300
C163        C  0.39125751  0.09914879  0.97905729    -0.26500
C164        C  0.39083829  0.07831566  0.01559826    -0.14500
C165        C  0.36290954  0.08835717  0.04641105     0.36100
C166        C  0.33719634  0.11942657  0.04019186    -0.25900
C167        C  0.33795955  0.13999327  0.00380427    -0.15100
C168        C  0.36515616  0.12951273  0.97268934     0.37200
N169        N  0.36686826  0.14842335  0.93418798    -0.89400
H170        H  0.41194071  0.09164061  0.95485466     0.18300
H171        H  0.31618601  0.12763979  0.06385378     0.18300
N172        N  0.36018721  0.06673474  0.08369413    -0.88400
H173        H  0.38975977  0.16477392  0.92904202     0.35700
H174        H  0.34545747  0.16930652  0.93218545     0.40800
H175        H  0.35411676  0.03691111  0.07910885     0.40400
H176        H  0.33900064  0.07906578  0.10335630     0.35300
C177        C  0.14648837  0.37415398  0.95484280    -0.26500
C178        C  0.15757251  0.36568256  0.99129552    -0.14500
C179        C  0.14178186  0.38816041  0.02419779     0.36100
C180        C  0.11495699  0.41832632  0.01969066    -0.25900
C181        C  0.10384136  0.42733667  0.98300111    -0.15100
C182        C  0.12023252  0.40499244  0.95004636     0.37200
N183        N  0.11010047  0.41311196  0.91187100    -0.89400
H184        H  0.15879419  0.35674779  0.92980817     0.18300
H185        H  0.10322305  0.43543663  0.04513851     0.18300
N186        N  0.15243542  0.38163135  0.06233202    -0.88400
H187        H  0.12190664  0.39108753  0.89217176     0.35700
H188        H  0.12065636  0.44060495  0.90117943     0.40800
H189        H  0.17293413  0.35910898  0.06220793     0.40400
H190        H  0.13077095  0.37105797  0.08136842     0.35300
C191        C  0.11519215  0.12422620  0.95767801    -0.26500
C192        C  0.10289636  0.10013490  0.99099996    -0.14500
C193        C  0.11757590  0.10428901  0.02591804     0.36100
C194        C  0.14449783  0.13155684  0.02611869    -0.25900
C195        C  0.15677539  0.15499643  0.99255842    -0.15100
C196        C  0.14187214  0.15130117  0.95787403     0.37200
N197        N  0.15303341  0.17433483  0.92230495    -0.89400
H198        H  0.10413990  0.12194299  0.93074915     0.18300
H199        H  0.15592054  0.13481530  0.05266775     0.18300
N200        N  0.10592165  0.08036950  0.06070706    -0.88400
H201        H  0.16372022  0.15359521  0.90081297     0.35700
H202        H  0.17321559  0.19332234  0.92532725     0.40800
H203        H  0.08012082  0.09113965  0.07157006     0.40400
H204        H  0.12119919  0.08515323  0.08266104     0.35300
C205        C  0.36286785  0.36133716  0.97006190    -0.26500
C206        C  0.33809391  0.35195752  0.00288906    -0.14500
C207        C  0.33924366  0.37056630  0.03888529     0.36100
C208        C  0.36534446  0.39794186  0.04110633    -0.25900
C209        C  0.39068862  0.40734596  0.00841395    -0.15100
C210        C  0.38927446  0.38865491  0.97230924     0.37200
N211        N  0.41460148  0.39701951  0.93810814    -0.89400
H212        H  0.36173187  0.34685781  0.94260590     0.18300
H213        H  0.36566589  0.41190926  0.06899151     0.18300
N214        N  0.31490555  0.36198916  0.07390757    -0.88400
H215        H  0.40879760  0.38211231  0.91380896     0.35700
H216        H  0.43930540  0.38459231  0.94356141     0.40800
H217        H  0.29724865  0.34031513  0.06950999     0.40400
H218        H  0.29969520  0.38887749  0.08133786     0.35300
C219        C  0.00381209  0.04030136  0.21221849    -0.26500
C220        C  0.02657890  0.00912060  0.22495990    -0.14500
C221        C  0.04399341  0.48083867  0.19762643     0.36100
C222        C  0.03755919  0.48390568  0.15840820    -0.25900
C223        C  0.01330217  0.01383058  0.14622305    -0.15100
C224        C  0.99632471  0.04245680  0.17349408     0.37200
N225        N  0.47176725  0.07385578  0.16186466    -0.89400
H226        H  0.99048270  0.06211299  0.23308253     0.18300
H227        H  0.05060088  0.46192360  0.13753960     0.18300
N228        N  0.06798808  0.44909428  0.20974331    -0.88400
H229        H  0.46421565  0.09444622  0.18439976     0.35700
H230        H  0.44867660  0.06002612  0.15819627     0.40800
H231        H  0.08944854  0.46298023  0.21805151     0.40400
H232        H  0.07825800  0.43061236  0.18620584     0.35300
C233        C  0.45923760  0.01705372  0.83990657    -0.26500
C234        C  0.48203243  0.48707882  0.85459881    -0.14500
C235        C  0.99813559  0.45594258  0.82953373     0.36100
C236        C  0.99267692  0.45665816  0.79026540    -0.25900
C237        C  0.47187041  0.48819188  0.77476218    -0.15100
C238        C  0.45409600  0.01806535  0.80020372     0.37200
N239        N  0.43106173  0.04936073  0.78564777    -0.89400
H240        H  0.44643415  0.04066109  0.85911950     0.18300
H241        H  0.00604682  0.43310902  0.77134552     0.18300
N242        N  0.01977560  0.42286351  0.84317915    -0.88400
H243        H  0.42011632  0.06896123  0.80804532     0.35700
H244        H  0.40992580  0.03515644  0.77695963     0.40800
H245        H  0.00521942  0.40877635  0.86757407     0.40400
H246        H  0.04228861  0.43426632  0.85156488     0.35300
O247        O  0.47274376  0.51908149  0.09990936    -0.81000
O248        O  0.46591124  0.99844228  0.92319965    -0.65700
O249        O  0.48472913  0.97910077  0.02823164    -1.12300
C250        C  0.07630180  0.56986756  0.98709179     1.05900
O251        O  0.02255230  0.98614339  0.90067316    -0.78900
O252        O  0.07414096  0.97763997  0.94643948    -0.66500
Ni253      Ni  0.44766621  0.98352643  0.07181014     1.34900
C254        C  0.07629586  0.96103920  0.97984103     0.84600
O255        O  0.43745606  0.95025002  0.98276639    -0.79500
O256        O  0.41992807  0.94744171  0.04796470    -0.89700
C257        C  0.49045456  0.99065745  0.89491306     0.84200
O258        O  0.42127410  0.52986051  0.05379528    -0.67900
O259        O  0.07332999  0.56002462  0.95228204    -0.87200
C260        C  0.41852232  0.54495108  0.01989406     0.85000
C261        C  0.41779869  0.93674622  0.01316017     1.06600
H262        H  0.99912260  0.55388725  0.97151414     0.38400
O263        O  0.00986103  0.52657962  0.97244219    -1.09900
O264        O  0.05661316  0.97282988  0.01095929    -0.66500
Ni265      Ni  0.02135771  0.51664129  0.02405237     1.26300
O266        O  0.43794922  0.53209462  0.98904476    -0.66800
O267        O  0.05781678  0.55507248  0.01776376    -0.79100
C268        C  0.00475383  0.51300834  0.10569235     0.84400
O269        O  0.02924826  0.50613517  0.07711630    -0.66200
Ni270      Ni  0.04661212  0.52293805  0.92859630     1.27400
Ni271      Ni  0.47359608  0.98868549  0.97648910     1.26100
H272        H  0.49524684  0.95164486  0.02950025     0.38900
N273        N  0.19486729  0.75734659  0.99339661    -0.36700
N274        N  0.24822323  0.81577146  0.99642831    -0.57300
N275        N  0.30217014  0.74885294  0.99614024    -0.36700
N276        N  0.24773780  0.69025137  0.99787780    -0.57300
C277        C  0.17386225  0.79191727  0.99908949     0.26800
C278        C  0.17361900  0.72568704  0.99957928     0.26800
C279        C  0.32099378  0.78029835  0.00379849     0.26800
C280        C  0.32076607  0.71404469  0.00443009     0.26800
C281        C  0.22086868  0.84218681  0.99049539     0.35500
C282        C  0.27731037  0.83768237  0.99245674     0.35500
C283        C  0.22025527  0.66863243  0.99178432     0.35500
C284        C  0.27671100  0.66410891  0.99408002     0.35500
C285        C  0.13878095  0.78211504  0.00845964    -0.22000
C286        C  0.13862525  0.74034713  0.00875549    -0.22000
C287        C  0.35233758  0.76526898  0.01613967    -0.22000
C288        C  0.35220253  0.72351139  0.01652292    -0.22000
C289        C  0.23255791  0.88114954  0.98316857    -0.23100
C290        C  0.26832494  0.87831006  0.98449777    -0.23100
C291        C  0.23177262  0.62846679  0.98444145    -0.23100
C292        C  0.26752904  0.62557479  0.98603018    -0.23100
C293        C  0.18512599  0.83215501  0.99387970    -0.18400
C294        C  0.18458817  0.68404863  0.99476459    -0.18400
C295        C  0.31095071  0.67390187  0.00000803    -0.18400
C296        C  0.31135909  0.82222126  0.99881673    -0.18400
H297        H  0.11561318  0.80290962  0.01414533     0.14500
H298        H  0.11530921  0.72279475  0.01467362     0.14500
H299        H  0.37320875  0.78256875  0.02407379     0.14500
H300        H  0.37296707  0.70252384  0.02478593     0.14500
H301        H  0.21687701  0.90883248  0.97796288     0.12800
H302        H  0.28565855  0.90337451  0.98052078     0.12800
H303        H  0.21600742  0.60373283  0.97889129     0.12800
H304        H  0.28476878  0.59819760  0.98192159     0.12800
H305        H  0.22144545  0.75562656  0.98147498     0.26000
H306        H  0.27974605  0.75098851  0.98247463     0.26000
C307        C  0.47073339  0.99018570  0.73176557     0.80100
N308        N  0.47378555  0.95508855  0.71145511    -0.78200
C309        C  0.47924895  0.95632050  0.67159977     0.82500
N310        N  0.48158401  0.99278203  0.65197928    -0.78200
C311        C  0.47778025  0.52808371  0.67168347     0.82600
N312        N  0.47197210  0.52674857  0.71164736    -0.79900
C313        C  0.03060495  0.50622412  0.26713937     0.80100
N314        N  0.02962441  0.54085255  0.28773042    -0.78200
C315        C  0.03059928  0.53885365  0.32696222     0.82500
N316        N  0.03218288  0.50189536  0.34569407    -0.78200
C317        C  0.03155062  0.96708426  0.32593659     0.82600
N318        N  0.03106832  0.96935821  0.28651610    -0.79900
N319        N  0.49729135  0.68716247  0.49953060    -0.36700
N320        N  0.00674147  0.75021803  0.43785724    -0.57300
N321        N  0.49684672  0.80988720  0.49871113    -0.36700
N322        N  0.48440439  0.74696675  0.55999363    -0.57300
C323        C  0.49593609  0.66578694  0.46710455     0.26800
C324        C  0.48372180  0.66414896  0.53095285     0.26800
C325        C  0.49491937  0.83395507  0.46626994     0.26800
C326        C  0.48359507  0.83237213  0.53021620     0.26800
C327        C  0.01895821  0.71720898  0.41667156     0.35500
C328        C  0.01817595  0.78313400  0.41608152     0.35500
C329        C  0.48754369  0.71303149  0.58285313     0.35500
C330        C  0.48774051  0.77885415  0.58239667     0.35500
C331        C  0.48099691  0.62895744  0.47799347    -0.22000
C332        C  0.47326615  0.62794158  0.51828476    -0.22000
C333        C  0.47978030  0.87201316  0.47729623    -0.22000
C334        C  0.47277943  0.87106268  0.51766770    -0.22000
C335        C  0.03792916  0.72915381  0.38102557    -0.23100
C336        C  0.03742912  0.77105523  0.38064662    -0.23100
C337        C  0.49231585  0.72340492  0.62018964    -0.23100
C338        C  0.49240041  0.76522890  0.61991404    -0.23100
C339        C  0.01146026  0.67672556  0.42851045    -0.18400
C340        C  0.48404234  0.67313215  0.57074523    -0.18400
C341        C  0.48435954  0.82010724  0.56991074    -0.18400
C342        C  0.01012061  0.82385411  0.42751314    -0.18400
H343        H  0.47701602  0.60480686  0.45894394     0.14500
H344        H  0.46212491  0.60289334  0.53629404     0.14500
H345        H  0.47527201  0.89815498  0.45826693     0.14500
H346        H  0.46177395  0.89628791  0.53578288     0.14500
H347        H  0.05073947  0.70972931  0.35777817     0.12800
H348        H  0.04985141  0.79036448  0.35708691     0.12800
H349        H  0.49512176  0.70303497  0.64506740     0.12800
H350        H  0.49524863  0.78351204  0.64455902     0.12800
H351        H  0.51142348  0.71298630  0.50040000     0.26000
H352        H  0.51110787  0.78198642  0.49960856     0.26000
C353        C  0.04788921  0.92078167  0.37969720    -0.26500
C354        C  0.02849577  0.92774515  0.34837231    -0.14500
C355        C  0.00457879  0.89876854  0.34129335     0.36100
C356        C  0.00006380  0.86397793  0.36633768    -0.25900
C357        C  0.01865867  0.85792087  0.39841510    -0.15100
C358        C  0.04346096  0.88606169  0.40452429     0.37200
N359        N  0.06336711  0.87966051  0.43664990    -0.89400
H360        H  0.06630273  0.94287665  0.38511753     0.18300
H361        H  0.98093935  0.84234506  0.36185920     0.18300
N362        N  0.98378918  0.90564319  0.30997471    -0.88400
H363        H  0.08020254  0.90333766  0.43746091     0.35700
H364        H  0.07958926  0.85304116  0.43142695     0.40800
H365        H  0.96680884  0.93144162  0.31658470     0.40400
H366        H  0.46761183  0.88141845  0.30872381     0.35300
C367        C  0.49946176  0.64245917  0.36910156    -0.26500
C368        C  0.01992313  0.64378729  0.39951548    -0.14500
C369        C  0.04563358  0.61171747  0.40415511     0.36100
C370        C  0.04883492  0.57828161  0.37968432    -0.25900
C371        C  0.02772390  0.57631917  0.34997091    -0.15100
C372        C  0.50308281  0.60904386  0.34420316     0.37200
N373        N  0.48084986  0.60751629  0.31424348    -0.89400
H374        H  0.47966459  0.66691000  0.36578395     0.18300
H375        H  0.06810998  0.55351531  0.38392997     0.18300
N376        N  0.06898050  0.61204194  0.43315785    -0.88400
H377        H  0.46430900  0.63404661  0.31382585     0.35700
H378        H  0.46428235  0.58344487  0.32166810     0.40800
H379        H  0.06621017  0.63938170  0.44798594     0.40400
H380        H  0.06210547  0.58880718  0.45393013     0.35300
C381        C  0.45395050  0.59811102  0.65540782    -0.26500
C382        C  0.48113638  0.56729169  0.64919481    -0.14500
C383        C  0.50996048  0.57269956  0.61906883     0.36100
C384        C  0.51064603  0.60831769  0.59528912    -0.25900
C385        C  0.48269213  0.63835152  0.60006133    -0.15100
C386        C  0.45381240  0.63311858  0.63061741     0.37200
N387        N  0.42346585  0.66158813  0.63656774    -0.89400
H388        H  0.43160003  0.59387473  0.67828354     0.18300
H389        H  0.53273094  0.61226904  0.57200808     0.18300
N390        N  0.53830670  0.54174581  0.61248208    -0.88400
H391        H  0.40132844  0.64611369  0.63241987     0.35700
H392        H  0.42530084  0.68539209  0.61565668     0.40800
H393        H  0.55095585  0.53960296  0.63738787     0.40400
H394        H  0.55728562  0.55014283  0.58891218     0.35300
C395        C  0.45291583  0.89432707  0.65238508    -0.26500
C396        C  0.48214841  0.91856901  0.64926402    -0.14500
C397        C  0.51282321  0.90807239  0.62249513     0.36100
C398        C  0.51290765  0.87538743  0.59778399    -0.29000
C399        C  0.48302449  0.85245659  0.59923087    -0.15100
C400        C  0.45286082  0.86139390  0.62761904     0.37200
N401        N  0.42139266  0.83898826  0.63121434    -0.89400
H402        H  0.42937539  0.90207357  0.67308522     0.18300
H403        H  0.03637103  0.86811015  0.57679517     0.18300
N404        N  0.04444594  0.92969060  0.62023538    -0.88400
H405        H  0.41852531  0.82400567  0.65870884     0.35700
H406        H  0.42344182  0.81656259  0.61028785     0.40800
H407        H  0.55201770  0.92910048  0.64816403     0.40400
H408        H  0.03894004  0.95991135  0.61175429     0.35300
C409        C  0.39125755  0.59914884  0.97905728    -0.26500
C410        C  0.39083835  0.57831575  0.01559827    -0.14500
C411        C  0.36290958  0.58835726  0.04641107     0.36100
C412        C  0.33719636  0.61942659  0.04019182    -0.25900
C413        C  0.33795956  0.63999322  0.00380422    -0.15100
C414        C  0.36515619  0.62951272  0.97268928     0.37200
N415        N  0.36686824  0.64842328  0.93418787    -0.89400
H416        H  0.41194073  0.59164063  0.95485463     0.18300
H417        H  0.31618604  0.62763985  0.06385373     0.18300
N418        N  0.36018723  0.56673478  0.08369415    -0.88400
H419        H  0.38975979  0.66477380  0.92904179     0.35700
H420        H  0.34545743  0.66930640  0.93218525     0.40800
H421        H  0.35411687  0.53691112  0.07910881     0.40400
H422        H  0.33900061  0.57906576  0.10335630     0.35300
C423        C  0.14648832  0.87415397  0.95484279    -0.26500
C424        C  0.15757250  0.86568259  0.99129550    -0.14500
C425        C  0.14178180  0.88816041  0.02419780     0.36100
C426        C  0.11495700  0.91832638  0.01969067    -0.25900
C427        C  0.10384138  0.92733673  0.98300112    -0.15100
C428        C  0.12023251  0.90499243  0.95004636     0.37200
N429        N  0.11010051  0.91311203  0.91187099    -0.89400
H430        H  0.15879411  0.85674780  0.92980816     0.18300
H431        H  0.10322308  0.93543670  0.04513851     0.18300
N432        N  0.15243532  0.88163122  0.06233203    -0.88400
H433        H  0.12190668  0.89108763  0.89217172     0.35700
H434        H  0.12065648  0.94060500  0.90117950     0.40800
H435        H  0.17293396  0.85910878  0.06220793     0.40400
H436        H  0.13077080  0.87105783  0.08136835     0.35300
C437        C  0.11519218  0.62422620  0.95767797    -0.26500
C438        C  0.10289629  0.60013497  0.99099996    -0.14500
C439        C  0.11757584  0.60428903  0.02591803     0.36100
C440        C  0.14449785  0.63155685  0.02611866    -0.25900
C441        C  0.15677542  0.65499643  0.99255838    -0.15100
C442        C  0.14187221  0.65130107  0.95787394     0.37200
N443        N  0.15303354  0.67433468  0.92230487    -0.89400
H444        H  0.10413996  0.62194300  0.93074912     0.18300
H445        H  0.15592058  0.63481531  0.05266771     0.18300
N446        N  0.10592159  0.58036957  0.06070705    -0.88400
H447        H  0.16372041  0.65359507  0.90081291     0.35700
H448        H  0.17321567  0.69332225  0.92532720     0.40800
H449        H  0.08012075  0.59113962  0.07157005     0.40400
H450        H  0.12119908  0.58515343  0.08266105     0.35300
C451        C  0.36286784  0.86133713  0.97006187    -0.26500
C452        C  0.33809392  0.85195749  0.00288905    -0.14500
C453        C  0.33924363  0.87056619  0.03888529     0.36100
C454        C  0.36534445  0.89794174  0.04110634    -0.25900
C455        C  0.39068857  0.90734594  0.00841395    -0.15100
C456        C  0.38927440  0.88865487  0.97230921     0.37200
N457        N  0.41460145  0.89701956  0.93810815    -0.89400
H458        H  0.36173184  0.84685781  0.94260587     0.18300
H459        H  0.36566589  0.91190907  0.06899156     0.18300
N460        N  0.31490552  0.86198913  0.07390757    -0.88400
H461        H  0.40879769  0.88211231  0.91380896     0.35700
H462        H  0.43930538  0.88459247  0.94356150     0.40800
H463        H  0.29724861  0.84031511  0.06951005     0.40400
H464        H  0.29969518  0.88887748  0.08133781     0.35300
C465        C  0.00381211  0.54030142  0.21221850    -0.26500
C466        C  0.02657890  0.50912062  0.22495990    -0.14500
C467        C  0.04399343  0.98083860  0.19762643     0.36100
C468        C  0.03755922  0.98390560  0.15840821    -0.25900
C469        C  0.01330215  0.51383066  0.14622306    -0.15100
C470        C  0.99632473  0.54245688  0.17349408     0.37200
N471        N  0.47176730  0.57385588  0.16186468    -0.89400
H472        H  0.99048274  0.56211305  0.23308258     0.18300
H473        H  0.05060093  0.96192351  0.13753965     0.18300
N474        N  0.06798813  0.94909427  0.20974332    -0.88400
H475        H  0.46421566  0.59444627  0.18439982     0.35700
H476        H  0.44867666  0.56002625  0.15819621     0.40800
H477        H  0.08944859  0.96298028  0.21805146     0.40400
H478        H  0.07825808  0.93061236  0.18620587     0.35300
C479        C  0.45923760  0.51705380  0.83990659    -0.26500
C480        C  0.48203246  0.98707875  0.85459881    -0.14500
C481        C  0.99813562  0.95594257  0.82953373     0.36100
C482        C  0.99267695  0.95665813  0.79026541    -0.25900
C483        C  0.47187040  0.98819174  0.77476220    -0.15100
C484        C  0.45409598  0.51806546  0.80020372     0.37200
N485        N  0.43106166  0.54936081  0.78564779    -0.89400
H486        H  0.44643415  0.54066116  0.85911954     0.18300
H487        H  0.00604682  0.93310901  0.77134556     0.18300
N488        N  0.01977559  0.92286350  0.84317913    -0.88400
H489        H  0.42011621  0.56896128  0.80804534     0.35700
H490        H  0.40992571  0.53515646  0.77695975     0.40800
H491        H  0.00521945  0.90877635  0.86757406     0.40400
H492        H  0.04228861  0.93426635  0.85156481     0.35300
O493        O  0.97274371  0.01908136  0.09990936    -0.81000
O494        O  0.96591128  0.49844231  0.92319966    -0.65700
O495        O  0.98472914  0.47910083  0.02823164    -1.12300
C496        C  0.57630180  0.06986747  0.98709177     1.05900
O497        O  0.52255227  0.48614355  0.90067311    -0.78900
O498        O  0.57414089  0.47764002  0.94643950    -0.66500
Ni499      Ni  0.94766624  0.48352652  0.07181012     1.34900
C500        C  0.57629577  0.46103915  0.97984103     0.84600
O501        O  0.93745614  0.45025001  0.98276638    -0.79500
O502        O  0.91992810  0.44744181  0.04796468    -0.89700
C503        C  0.99045459  0.49065752  0.89491305     0.84200
O504        O  0.92127401  0.02986039  0.05379530    -0.67900
O505        O  0.57332999  0.06002452  0.95228203    -0.87200
C506        C  0.91852225  0.04495099  0.01989411     0.85000
C507        C  0.91779875  0.43674622  0.01316016     1.06600
H508        H  0.49912253  0.05388717  0.97151405     0.38400
O509        O  0.50986099  0.02657956  0.97244218    -1.09900
O510        O  0.55661305  0.47282980  0.01095929    -0.66500
Ni511      Ni  0.52135766  0.01664129  0.02405237     1.26300
O512        O  0.93794917  0.03209461  0.98904478    -0.66800
O513        O  0.55781675  0.05507249  0.01776376    -0.79100
C514        C  0.50475379  0.01300829  0.10569235     0.84400
O515        O  0.52924820  0.00613512  0.07711629    -0.66200
Ni516      Ni  0.54661206  0.02293795  0.92859630     1.27400
Ni517      Ni  0.97359608  0.48868557  0.97648910     1.26100
H518        H  0.99524671  0.45164495  0.02950023     0.38900
N519        N  0.69486730  0.25734649  0.99339660    -0.36700
N520        N  0.74822322  0.31577141  0.99642830    -0.57300
N521        N  0.80217011  0.24885297  0.99614021    -0.36700
N522        N  0.74773773  0.19025139  0.99787780    -0.57300
C523        C  0.67386230  0.29191719  0.99908947     0.26800
C524        C  0.67361898  0.22568698  0.99957929     0.26800
C525        C  0.82099378  0.28029839  0.00379850     0.26800
C526        C  0.82076604  0.21404478  0.00443008     0.26800
C527        C  0.72086870  0.34218675  0.99049534     0.35500
C528        C  0.77731035  0.33768233  0.99245675     0.35500
C529        C  0.72025525  0.16863240  0.99178432     0.35500
C530        C  0.77671096  0.16410897  0.99408002     0.35500
C531        C  0.63878101  0.28211498  0.00845965    -0.22000
C532        C  0.63862528  0.24034705  0.00875550    -0.22000
C533        C  0.85233755  0.26526912  0.01613968    -0.22000
C534        C  0.85220251  0.22351151  0.01652291    -0.22000
C535        C  0.73255792  0.38114949  0.98316856    -0.23100
C536        C  0.76832495  0.37830999  0.98449778    -0.23100
C537        C  0.73177265  0.12846676  0.98444146    -0.23100
C538        C  0.76752904  0.12557485  0.98603018    -0.23100
C539        C  0.68512602  0.33215494  0.99387963    -0.18400
C540        C  0.68458814  0.18404859  0.99476459    -0.18400
C541        C  0.81095070  0.17390198  0.00000804    -0.18400
C542        C  0.81135906  0.32222129  0.99881676    -0.18400
H543        H  0.61561328  0.30290964  0.01414529     0.14500
H544        H  0.61530925  0.22279467  0.01467360     0.14500
H545        H  0.87320868  0.28256891  0.02407383     0.14500
H546        H  0.87296711  0.20252393  0.02478590     0.14500
H547        H  0.71687705  0.40883247  0.97796284     0.12800
H548        H  0.78565861  0.40337440  0.98052080     0.12800
H549        H  0.71600749  0.10373275  0.97889131     0.12800
H550        H  0.78476880  0.09819772  0.98192159     0.12800
H551        H  0.72144547  0.25562646  0.98147488     0.26000
H552        H  0.77974603  0.25098850  0.98247459     0.26000
C553        C  0.97073331  0.49018577  0.73176556     0.80100
N554        N  0.97378541  0.45508864  0.71145511    -0.78200
C555        C  0.97924886  0.45632056  0.67159978     0.82500
N556        N  0.98158390  0.49278206  0.65197927    -0.78200
C557        C  0.97778025  0.02808366  0.67168349     0.82600
N558        N  0.97197202  0.02674851  0.71164737    -0.79900
C559        C  0.53060501  0.00622412  0.26713937     0.80100
N560        N  0.52962450  0.04085252  0.28773040    -0.78200
C561        C  0.53059933  0.03885366  0.32696220     0.82500
N562        N  0.53218296  0.00189538  0.34569405    -0.78200
C563        C  0.53155063  0.46708428  0.32593659     0.82600
N564        N  0.53106824  0.46935820  0.28651613    -0.79900
N565        N  0.99729141  0.18716245  0.49953059    -0.36700
N566        N  0.50674152  0.25021800  0.43785727    -0.57300
N567        N  0.99684672  0.30988725  0.49871108    -0.36700
N568        N  0.98440451  0.24696676  0.55999361    -0.57300
C569        C  0.99593608  0.16578690  0.46710455     0.26800
C570        C  0.98372190  0.16414895  0.53095284     0.26800
C571        C  0.99491934  0.33395508  0.46626988     0.26800
C572        C  0.98359511  0.33237212  0.53021618     0.26800
C573        C  0.51895831  0.21720897  0.41667159     0.35500
C574        C  0.51817591  0.28313400  0.41608151     0.35500
C575        C  0.98754372  0.21303152  0.58285314     0.35500
C576        C  0.98774063  0.27885419  0.58239665     0.35500
C577        C  0.98099696  0.12895739  0.47799348    -0.22000
C578        C  0.97326624  0.12794155  0.51828477    -0.22000
C579        C  0.97978030  0.37201319  0.47729623    -0.22000
C580        C  0.97277941  0.37106264  0.51766771    -0.22000
C581        C  0.53792919  0.22915381  0.38102558    -0.23100
C582        C  0.53742904  0.27105523  0.38064657    -0.23100
C583        C  0.99231582  0.22340499  0.62018968    -0.23100
C584        C  0.99240047  0.26522892  0.61991407    -0.23100
C585        C  0.51146038  0.17672552  0.42851046    -0.18400
C586        C  0.98404238  0.17313215  0.57074522    -0.18400
C587        C  0.98435958  0.32010728  0.56991073    -0.18400
C588        C  0.51012066  0.32385410  0.42751313    -0.18400
H589        H  0.97701603  0.10480678  0.45894401     0.14500
H590        H  0.96212497  0.10289334  0.53629410     0.14500
H591        H  0.97527209  0.39815507  0.45826697     0.14500
H592        H  0.96177384  0.39628782  0.53578291     0.14500
H593        H  0.55073951  0.20972932  0.35777818     0.12800
H594        H  0.54985125  0.29036446  0.35708680     0.12800
H595        H  0.99512165  0.20303507  0.64506747     0.12800
H596        H  0.99524875  0.28351204  0.64455903     0.12800
H597        H  0.01142355  0.21298626  0.50040001     0.26000
H598        H  0.01110790  0.28198647  0.49960848     0.26000
C599        C  0.54788924  0.42078169  0.37969720    -0.26500
C600        C  0.52849582  0.42774517  0.34837231    -0.14500
C601        C  0.50457886  0.39876848  0.34129334     0.36100
C602        C  0.50006388  0.36397788  0.36633770    -0.25900
C603        C  0.51865876  0.35792086  0.39841510    -0.15100
C604        C  0.54346105  0.38606170  0.40452428     0.37200
N605        N  0.56336717  0.37966058  0.43664994    -0.89400
H606        H  0.56630270  0.44287671  0.38511755     0.18300
H607        H  0.48093941  0.34234501  0.36185930     0.18300
N608        N  0.48378923  0.40564312  0.30997470    -0.88400
H609        H  0.58020260  0.40333776  0.43746086     0.35700
H610        H  0.57958940  0.35304129  0.43142709     0.40800
H611        H  0.46680888  0.43144153  0.31658472     0.40400
H612        H  0.96761180  0.38141841  0.30872386     0.35300
C613        C  0.99946179  0.14245915  0.36910156    -0.26500
C614        C  0.51992322  0.14378732  0.39951546    -0.14500
C615        C  0.54563366  0.11171746  0.40415508     0.36100
C616        C  0.54883493  0.07828160  0.37968431    -0.25900
C617        C  0.52772388  0.07631918  0.34997092    -0.15100
C618        C  0.00308285  0.10904383  0.34420315     0.37200
N619        N  0.98084993  0.10751633  0.31424346    -0.89400
H620        H  0.97966462  0.16690997  0.36578397     0.18300
H621        H  0.56810999  0.05351529  0.38392995     0.18300
N622        N  0.56898056  0.11204189  0.43315787    -0.88400
H623        H  0.96430905  0.13404666  0.31382599     0.35700
H624        H  0.96428244  0.08344487  0.32166792     0.40800
H625        H  0.56621032  0.13938167  0.44798592     0.40400
H626        H  0.56210548  0.08880720  0.45393022     0.35300
C627        C  0.95395049  0.09811096  0.65540785    -0.26500
C628        C  0.98113636  0.06729167  0.64919484    -0.14500
C629        C  0.00996047  0.07269952  0.61906883     0.36100
C630        C  0.01064600  0.10831765  0.59528912    -0.25900
C631        C  0.98269209  0.13835150  0.60006134    -0.15100
C632        C  0.95381235  0.13311851  0.63061740     0.37200
N633        N  0.92346578  0.16158806  0.63656771    -0.89400
H634        H  0.93160007  0.09387471  0.67828360     0.18300
H635        H  0.03273093  0.11226903  0.57200810     0.18300
N636        N  0.03830674  0.04174578  0.61248209    -0.88400
H637        H  0.90132837  0.14611361  0.63241989     0.35700
H638        H  0.92530078  0.18539198  0.61565663     0.40800
H639        H  0.05095588  0.03960296  0.63738789     0.40400
H640        H  0.05728566  0.05014277  0.58891217     0.35300
C641        C  0.95291576  0.39432711  0.65238503    -0.26500
C642        C  0.98214838  0.41856903  0.64926402    -0.14500
C643        C  0.01282319  0.40807235  0.62249517     0.36100
C644        C  0.01290762  0.37538741  0.59778400    -0.29000
C645        C  0.98302449  0.35245659  0.59923086    -0.15100
C646        C  0.95286079  0.36139389  0.62761903     0.37200
N647        N  0.92139268  0.33898819  0.63121435    -0.89400
H648        H  0.92937527  0.40207367  0.67308508     0.18300
H649        H  0.53637103  0.36811004  0.57679524     0.18300
N650        N  0.54444593  0.42969054  0.62023540    -0.88400
H651        H  0.91852537  0.32400561  0.65870885     0.35700
H652        H  0.92344192  0.31656252  0.61028788     0.40800
H653        H  0.05201767  0.42910048  0.64816404     0.40400
H654        H  0.53893995  0.45991126  0.61175431     0.35300
C655        C  0.89125743  0.09914877  0.97905730    -0.26500
C656        C  0.89083823  0.07831567  0.01559833    -0.14500
C657        C  0.86290946  0.08835718  0.04641107     0.36100
C658        C  0.83719628  0.11942658  0.04019183    -0.25900
C659        C  0.83795952  0.13999327  0.00380424    -0.15100
C660        C  0.86515612  0.12951271  0.97268931     0.37200
N661        N  0.86686828  0.14842333  0.93418792    -0.89400
H662        H  0.91194064  0.09164055  0.95485465     0.18300
H663        H  0.81618595  0.12763986  0.06385374     0.18300
N664        N  0.86018713  0.06673476  0.08369417    -0.88400
H665        H  0.88975980  0.16477389  0.92904203     0.35700
H666        H  0.84545752  0.16930650  0.93218527     0.40800
H667        H  0.85411677  0.03691109  0.07910889     0.40400
H668        H  0.83900049  0.07906571  0.10335628     0.35300
C669        C  0.64648831  0.37415395  0.95484280    -0.26500
C670        C  0.65757249  0.36568256  0.99129549    -0.14500
C671        C  0.64178185  0.38816040  0.02419777     0.36100
C672        C  0.61495701  0.41832633  0.01969067    -0.25900
C673        C  0.60384131  0.42733668  0.98300111    -0.15100
C674        C  0.62023247  0.40499244  0.95004637     0.37200
N675        N  0.61010055  0.41311206  0.91187099    -0.89400
H676        H  0.65879414  0.35674779  0.92980814     0.18300
H677        H  0.60322316  0.43543669  0.04513852     0.18300
N678        N  0.65243544  0.38163132  0.06233197    -0.88400
H679        H  0.62190679  0.39108766  0.89217175     0.35700
H680        H  0.62065649  0.44060505  0.90117955     0.40800
H681        H  0.67293416  0.35910898  0.06220785     0.40400
H682        H  0.63077097  0.37105792  0.08136837     0.35300
C683        C  0.61519222  0.12422613  0.95767790    -0.26500
C684        C  0.60289632  0.10013490  0.99099991    -0.14500
C685        C  0.61757581  0.10428907  0.02591803     0.36100
C686        C  0.64449777  0.13155688  0.02611867    -0.25900
C687        C  0.65677539  0.15499639  0.99255839    -0.15100
C688        C  0.64187219  0.15130104  0.95787393     0.37200
N689        N  0.65303349  0.17433473  0.92230489    -0.89400
H690        H  0.60414003  0.12194292  0.93074904     0.18300
H691        H  0.65592045  0.13481538  0.05266774     0.18300
N692        N  0.60592153  0.08036965  0.06070708    -0.88400
H693        H  0.66372044  0.15359521  0.90081290     0.35700
H694        H  0.67321559  0.19332233  0.92532730     0.40800
H695        H  0.58012072  0.09113987  0.07157005     0.40400
H696        H  0.62119901  0.08515350  0.08266108     0.35300
C697        C  0.86286777  0.36133717  0.97006191    -0.26500
C698        C  0.83809385  0.35195755  0.00288907    -0.14500
C699        C  0.83924358  0.37056631  0.03888530     0.36100
C700        C  0.86534441  0.39794182  0.04110634    -0.25900
C701        C  0.89068859  0.40734593  0.00841396    -0.15100
C702        C  0.88927440  0.38865490  0.97230924     0.37200
N703        N  0.91460142  0.39701949  0.93810817    -0.89400
H704        H  0.86173177  0.34685783  0.94260590     0.18300
H705        H  0.86566582  0.41190921  0.06899153     0.18300
N706        N  0.81490546  0.36198920  0.07390758    -0.88400
H707        H  0.90879761  0.38211218  0.91380902     0.35700
H708        H  0.93930535  0.38459243  0.94356151     0.40800
H709        H  0.79724849  0.34031527  0.06950996     0.40400
H710        H  0.79969514  0.38887753  0.08133795     0.35300
C711        C  0.50381216  0.04030137  0.21221851    -0.26500
C712        C  0.52657895  0.00912061  0.22495990    -0.14500
C713        C  0.54399351  0.48083867  0.19762642     0.36100
C714        C  0.53755933  0.48390571  0.15840817    -0.25900
C715        C  0.51330218  0.01383060  0.14622304    -0.15100
C716        C  0.49632477  0.04245681  0.17349409     0.37200
N717        N  0.97176717  0.07385577  0.16186468    -0.89400
H718        H  0.49048279  0.06211300  0.23308256     0.18300
H719        H  0.55060106  0.46192365  0.13753957     0.18300
N720        N  0.56798819  0.44909427  0.20974332    -0.88400
H721        H  0.96421551  0.09444618  0.18439980     0.35700
H722        H  0.94867655  0.06002610  0.15819621     0.40800
H723        H  0.58944867  0.46298021  0.21805149     0.40400
H724        H  0.57825814  0.43061235  0.18620588     0.35300
C725        C  0.95923763  0.01705374  0.83990660    -0.26500
C726        C  0.98203241  0.48707874  0.85459882    -0.14500
C727        C  0.49813560  0.45594265  0.82953374     0.36100
C728        C  0.49267691  0.45665822  0.79026542    -0.25900
C729        C  0.97187043  0.48819182  0.77476219    -0.15100
C730        C  0.95409600  0.01806538  0.80020373     0.37200
N731        N  0.93106166  0.04936071  0.78564779    -0.89400
H732        H  0.94643423  0.04066114  0.85911951     0.18300
H733        H  0.50604680  0.43310907  0.77134555     0.18300
N734        N  0.51977553  0.42286352  0.84317916    -0.88400
H735        H  0.92011624  0.06896119  0.80804536     0.35700
H736        H  0.90992575  0.03515638  0.77695965     0.40800
H737        H  0.50521930  0.40877640  0.86757406     0.40400
H738        H  0.54228857  0.43426622  0.85156493     0.35300
O739        O  0.97274373  0.51908149  0.09990932    -0.81000
O740        O  0.96591130  0.99844235  0.92319965    -0.65700
O741        O  0.98472917  0.97910083  0.02823161    -1.12300
C742        C  0.57630181  0.56986753  0.98709178     1.05900
O743        O  0.52255225  0.98614340  0.90067317    -0.78900
O744        O  0.57414089  0.97763993  0.94643948    -0.66500
Ni745      Ni  0.94766629  0.98352638  0.07181013     1.34900
C746        C  0.57629580  0.96103917  0.97984103     0.84600
O747        O  0.93745612  0.95025004  0.98276637    -0.79500
O748        O  0.91992817  0.94744165  0.04796468    -0.89700
C749        C  0.99045459  0.99065745  0.89491306     0.84200
O750        O  0.92127402  0.52986051  0.05379528    -0.67900
O751        O  0.57332993  0.56002467  0.95228203    -0.87200
C752        C  0.91852225  0.54495107  0.01989406     0.85000
C753        C  0.91779877  0.93674620  0.01316015     1.06600
H754        H  0.49912257  0.55388726  0.97151413     0.38400
O755        O  0.50986101  0.52657964  0.97244219    -1.09900
O756        O  0.55661310  0.97282988  0.01095929    -0.66500
Ni757      Ni  0.52135770  0.51664130  0.02405237     1.26300
O758        O  0.93794917  0.53209463  0.98904475    -0.66800
O759        O  0.55781683  0.55507245  0.01776376    -0.79100
C760        C  0.50475386  0.51300833  0.10569235     0.84400
O761        O  0.52924827  0.50613514  0.07711628    -0.66200
Ni762      Ni  0.54661207  0.52293807  0.92859631     1.27400
Ni763      Ni  0.97359609  0.98868559  0.97648910     1.26100
H764        H  0.99524685  0.95164490  0.02950014     0.38900
N765        N  0.69486732  0.75734657  0.99339658    -0.36700
N766        N  0.74822320  0.81577146  0.99642831    -0.57300
N767        N  0.80217012  0.74885294  0.99614025    -0.36700
N768        N  0.74773776  0.69025136  0.99787780    -0.57300
C769        C  0.67386231  0.79191726  0.99908956     0.26800
C770        C  0.67361900  0.72568706  0.99957927     0.26800
C771        C  0.82099379  0.78029836  0.00379850     0.26800
C772        C  0.82076607  0.71404470  0.00443002     0.26800
C773        C  0.72086866  0.84218681  0.99049537     0.35500
C774        C  0.77731033  0.83768238  0.99245675     0.35500
C775        C  0.72025524  0.66863242  0.99178432     0.35500
C776        C  0.77671095  0.66410891  0.99408004     0.35500
C777        C  0.63878101  0.78211505  0.00845982    -0.22000
C778        C  0.63862527  0.74034714  0.00875557    -0.22000
C779        C  0.85233759  0.76526902  0.01613961    -0.22000
C780        C  0.85220259  0.72351143  0.01652277    -0.22000
C781        C  0.73255785  0.88114953  0.98316857    -0.23100
C782        C  0.76832489  0.87831007  0.98449777    -0.23100
C783        C  0.73177257  0.62846679  0.98444146    -0.23100
C784        C  0.76752898  0.62557479  0.98603018    -0.23100
C785        C  0.68512601  0.83215501  0.99387970    -0.18400
C786        C  0.68458815  0.68404865  0.99476458    -0.18400
C787        C  0.81095070  0.67390188  0.00000803    -0.18400
C788        C  0.81135906  0.82222127  0.99881674    -0.18400
H789        H  0.61561327  0.80290969  0.01414557     0.14500
H790        H  0.61530922  0.72279478  0.01467362     0.14500
H791        H  0.87320871  0.78256877  0.02407383     0.14500
H792        H  0.87296720  0.70252388  0.02478569     0.14500
H793        H  0.71687693  0.90883246  0.97796288     0.12800
H794        H  0.78565847  0.90337455  0.98052077     0.12800
H795        H  0.71600736  0.60373284  0.97889129     0.12800
H796        H  0.78476869  0.59819758  0.98192157     0.12800
H797        H  0.72144546  0.75562653  0.98147487     0.26000
H798        H  0.77974598  0.75098851  0.98247470     0.26000
C799        C  0.97073333  0.99018573  0.73176558     0.80100
N800        N  0.97378548  0.95508858  0.71145513    -0.78200
C801        C  0.97924889  0.95632051  0.67159978     0.82500
N802        N  0.98158394  0.99278202  0.65197928    -0.78200
C803        C  0.97778028  0.52808370  0.67168346     0.82600
N804        N  0.97197207  0.52674857  0.71164735    -0.79900
C805        C  0.53060493  0.50622410  0.26713937     0.80100
N806        N  0.52962450  0.54085254  0.28773039    -0.78200
C807        C  0.53059924  0.53885365  0.32696222     0.82500
N808        N  0.53218283  0.50189537  0.34569407    -0.78200
C809        C  0.53155063  0.96708428  0.32593660     0.82600
N810        N  0.53106828  0.96935823  0.28651613    -0.79900
N811        N  0.99729145  0.68716243  0.49953060    -0.36700
N812        N  0.50674141  0.75021804  0.43785721    -0.57300
N813        N  0.99684669  0.80988719  0.49871111    -0.36700
N814        N  0.98440431  0.74696676  0.55999364    -0.57300
C815        C  0.99593606  0.66578694  0.46710456     0.26800
C816        C  0.98372192  0.66414893  0.53095287     0.26800
C817        C  0.99491935  0.83395506  0.46626993     0.26800
C818        C  0.98359511  0.83237213  0.53021619     0.26800
C819        C  0.51895821  0.71720898  0.41667156     0.35500
C820        C  0.51817590  0.78313401  0.41608151     0.35500
C821        C  0.98754361  0.71303150  0.58285314     0.35500
C822        C  0.98774045  0.77885415  0.58239667     0.35500
C823        C  0.98099686  0.62895746  0.47799352    -0.22000
C824        C  0.97326624  0.62794159  0.51828485    -0.22000
C825        C  0.97978036  0.87201318  0.47729623    -0.22000
C826        C  0.97277946  0.87106268  0.51766770    -0.22000
C827        C  0.53792919  0.72915383  0.38102558    -0.23100
C828        C  0.53742908  0.77105525  0.38064662    -0.23100
C829        C  0.99231578  0.72340492  0.62018965    -0.23100
C830        C  0.99240032  0.76522890  0.61991405    -0.23100
C831        C  0.51146031  0.67672556  0.42851046    -0.18400
C832        C  0.98404234  0.67313215  0.57074524    -0.18400
C833        C  0.98435954  0.82010724  0.56991075    -0.18400
C834        C  0.51012063  0.82385411  0.42751314    -0.18400
H835        H  0.97701583  0.60480689  0.45894402     0.14500
H836        H  0.96212497  0.60289340  0.53629421     0.14500
H837        H  0.97527214  0.89815504  0.45826695     0.14500
H838        H  0.96177391  0.89628789  0.53578289     0.14500
H839        H  0.55073959  0.70972933  0.35777822     0.12800
H840        H  0.54985134  0.79036449  0.35708689     0.12800
H841        H  0.99512176  0.70303495  0.64506737     0.12800
H842        H  0.99524860  0.78351204  0.64455902     0.12800
H843        H  0.01142360  0.71298625  0.50039999     0.26000
H844        H  0.01110777  0.78198636  0.49960853     0.26000
C845        C  0.54788925  0.92078168  0.37969720    -0.26500
C846        C  0.52849583  0.92774516  0.34837231    -0.14500
C847        C  0.50457887  0.89876854  0.34129333     0.36100
C848        C  0.50006379  0.86397796  0.36633770    -0.25900
C849        C  0.51865868  0.85792087  0.39841511    -0.15100
C850        C  0.54346100  0.88606170  0.40452429     0.37200
N851        N  0.56336709  0.87966051  0.43664992    -0.89400
H852        H  0.56630271  0.94287668  0.38511757     0.18300
H853        H  0.48093929  0.84234514  0.36185926     0.18300
N854        N  0.48378926  0.90564319  0.30997468    -0.88400
H855        H  0.58020251  0.90333766  0.43746097     0.35700
H856        H  0.57958923  0.85304115  0.43142703     0.40800
H857        H  0.46680894  0.93144162  0.31658471     0.40400
H858        H  0.96761176  0.88141844  0.30872385     0.35300
C859        C  0.99946182  0.64245918  0.36910152    -0.26500
C860        C  0.51992312  0.64378730  0.39951548    -0.14500
C861        C  0.54563355  0.61171746  0.40415511     0.36100
C862        C  0.54883485  0.57828159  0.37968434    -0.25900
C863        C  0.52772383  0.57631916  0.34997094    -0.15100
C864        C  0.00308286  0.60904386  0.34420314     0.37200
N865        N  0.98084985  0.60751627  0.31424352    -0.89400
H866        H  0.97966465  0.66691002  0.36578393     0.18300
H867        H  0.56810991  0.55351529  0.38392997     0.18300
N868        N  0.56898056  0.61204194  0.43315780    -0.88400
H869        H  0.96430899  0.63404660  0.31382594     0.35700
H870        H  0.96428234  0.58344486  0.32166820     0.40800
H871        H  0.56621029  0.63938173  0.44798582     0.40400
H872        H  0.56210558  0.58880721  0.45393014     0.35300
C873        C  0.95395048  0.59811099  0.65540780    -0.26500
C874        C  0.98113638  0.56729168  0.64919481    -0.14500
C875        C  0.00996051  0.57269957  0.61906884     0.36100
C876        C  0.01064603  0.60831772  0.59528915    -0.25900
C877        C  0.98269210  0.63835152  0.60006136    -0.15100
C878        C  0.95381236  0.63311856  0.63061740     0.37200
N879        N  0.92346581  0.66158813  0.63656774    -0.89400
H880        H  0.93160002  0.59387473  0.67828353     0.18300
H881        H  0.03273096  0.61226912  0.57200814     0.18300
N882        N  0.03830675  0.54174584  0.61248209    -0.88400
H883        H  0.90132839  0.64611372  0.63241989     0.35700
H884        H  0.92530080  0.68539208  0.61565667     0.40800
H885        H  0.05095590  0.53960298  0.63738789     0.40400
H886        H  0.05728567  0.55014286  0.58891220     0.35300
C887        C  0.95291578  0.89432708  0.65238508    -0.26500
C888        C  0.98214839  0.91856902  0.64926402    -0.14500
C889        C  0.01282315  0.90807240  0.62249514     0.36100
C890        C  0.01290758  0.87538747  0.59778397    -0.29000
C891        C  0.98302445  0.85245661  0.59923088    -0.15100
C892        C  0.95286076  0.86139391  0.62761904     0.37200
N893        N  0.92139259  0.83898827  0.63121433    -0.89400
H894        H  0.92937534  0.90207362  0.67308522     0.18300
H895        H  0.53637110  0.86811010  0.57679521     0.18300
N896        N  0.54444597  0.92969063  0.62023539    -0.88400
H897        H  0.91852523  0.82400567  0.65870883     0.35700
H898        H  0.92344177  0.81656260  0.61028784     0.40800
H899        H  0.05201765  0.92910050  0.64816403     0.40400
H900        H  0.53894001  0.95991139  0.61175442     0.35300
C901        C  0.89125750  0.59914884  0.97905727    -0.26500
C902        C  0.89083828  0.57831573  0.01559826    -0.14500
C903        C  0.86290952  0.58835724  0.04641106     0.36100
C904        C  0.83719632  0.61942662  0.04019182    -0.25900
C905        C  0.83795954  0.63999324  0.00380422    -0.15100
C906        C  0.86515614  0.62951272  0.97268929     0.37200
N907        N  0.86686821  0.64842325  0.93418787    -0.89400
H908        H  0.91194069  0.59164065  0.95485461     0.18300
H909        H  0.81618599  0.62763990  0.06385371     0.18300
N910        N  0.86018718  0.56673476  0.08369414    -0.88400
H911        H  0.88975978  0.66477372  0.92904176     0.35700
H912        H  0.84545742  0.66930640  0.93218528     0.40800
H913        H  0.85411673  0.53691113  0.07910883     0.40400
H914        H  0.83900061  0.57906581  0.10335630     0.35300
C915        C  0.64648834  0.87415400  0.95484280    -0.26500
C916        C  0.65757250  0.86568262  0.99129550    -0.14500
C917        C  0.64178184  0.88816043  0.02419780     0.36100
C918        C  0.61495698  0.91832635  0.01969068    -0.25900
C919        C  0.60384132  0.92733670  0.98300113    -0.15100
C920        C  0.62023248  0.90499242  0.95004637     0.37200
N921        N  0.61010047  0.91311204  0.91187100    -0.89400
H922        H  0.65879419  0.85674786  0.92980816     0.18300
H923        H  0.60322304  0.93543665  0.04513853     0.18300
N924        N  0.65243540  0.88163128  0.06233203    -0.88400
H925        H  0.62190657  0.89108757  0.89217176     0.35700
H926        H  0.62065648  0.94060498  0.90117948     0.40800
H927        H  0.67293410  0.85910890  0.06220788     0.40400
H928        H  0.63077095  0.87105776  0.08136837     0.35300
C929        C  0.61519223  0.62422617  0.95767793    -0.26500
C930        C  0.60289635  0.60013491  0.99099993    -0.14500
C931        C  0.61757589  0.60428900  0.02591802     0.36100
C932        C  0.64449783  0.63155687  0.02611867    -0.25900
C933        C  0.65677538  0.65499646  0.99255840    -0.15100
C934        C  0.64187218  0.65130111  0.95787395     0.37200
N935        N  0.65303341  0.67433487  0.92230492    -0.89400
H936        H  0.60414002  0.62194299  0.93074907     0.18300
H937        H  0.65592052  0.63481538  0.05266773     0.18300
N938        N  0.60592161  0.58036954  0.06070704    -0.88400
H939        H  0.66372023  0.65359539  0.90081283     0.35700
H940        H  0.67321554  0.69332245  0.92532725     0.40800
H941        H  0.58012083  0.59113981  0.07157007     0.40400
H942        H  0.62119919  0.58515323  0.08266099     0.35300
C943        C  0.86286781  0.86133715  0.97006188    -0.26500
C944        C  0.83809389  0.85195750  0.00288905    -0.14500
C945        C  0.83924366  0.87056620  0.03888530     0.36100
C946        C  0.86534446  0.89794174  0.04110635    -0.25900
C947        C  0.89068860  0.90734593  0.00841395    -0.15100
C948        C  0.88927443  0.88865487  0.97230921     0.37200
N949        N  0.91460144  0.89701953  0.93810811    -0.89400
H950        H  0.86173178  0.84685787  0.94260586     0.18300
H951        H  0.86566587  0.91190907  0.06899157     0.18300
N952        N  0.81490551  0.86198912  0.07390757    -0.88400
H953        H  0.90879762  0.88211227  0.91380895     0.35700
H954        H  0.93930541  0.88459248  0.94356139     0.40800
H955        H  0.79724852  0.84031520  0.06950999     0.40400
H956        H  0.79969520  0.88887750  0.08133781     0.35300
C957        C  0.50381207  0.54030130  0.21221854    -0.26500
C958        C  0.52657890  0.50912057  0.22495991    -0.14500
C959        C  0.54399355  0.98083866  0.19762640     0.36100
C960        C  0.53755935  0.98390569  0.15840818    -0.25900
C961        C  0.51330224  0.51383066  0.14622304    -0.15100
C962        C  0.49632478  0.54245685  0.17349410     0.37200
N963        N  0.97176722  0.57385586  0.16186465    -0.89400
H964        H  0.49048261  0.56211285  0.23308263     0.18300
H965        H  0.55060112  0.96192367  0.13753959     0.18300
N966        N  0.56798825  0.94909431  0.20974330    -0.88400
H967        H  0.96421562  0.59444630  0.18439976     0.35700
H968        H  0.94867658  0.56002622  0.15819624     0.40800
H969        H  0.58944874  0.96298028  0.21805139     0.40400
H970        H  0.57825818  0.93061237  0.18620587     0.35300
C971        C  0.95923752  0.51705364  0.83990663    -0.26500
C972        C  0.98203245  0.98707876  0.85459882    -0.14500
C973        C  0.49813561  0.95594254  0.82953374     0.36100
C974        C  0.49267684  0.95665804  0.79026544    -0.25900
C975        C  0.97187045  0.98819180  0.77476218    -0.15100
C976        C  0.95409595  0.51806533  0.80020374     0.37200
N977        N  0.93106172  0.54936075  0.78564777    -0.89400
H978        H  0.94643407  0.54066102  0.85911955     0.18300
H979        H  0.50604665  0.93310885  0.77134560     0.18300
N980        N  0.51977558  0.92286350  0.84317916    -0.88400
H981        H  0.92011628  0.56896120  0.80804536     0.35700
H982        H  0.90992582  0.53515650  0.77695953     0.40800
H983        H  0.50521942  0.90877639  0.86757410     0.40400
H984        H  0.54228861  0.93426631  0.85156484     0.35300
loop_ 
_geom_bond_atom_site_label_1 
_geom_bond_atom_site_label_2 
_geom_bond_distance 
_geom_bond_site_symmetry_2 
_ccdc_geom_bond_type 
O1         Ni253   1.933   1_545  S
O1          C514   1.272       .  A
O2          Ni25   1.916       .  S
O2           C11   1.269       .  A
O3           Ni7   1.906       .  S
O3          Ni25   1.906   1_554  S
O3         Ni757   1.911       .  S
O3           H26   0.967       .  S
C4           O21   1.278   1_556  A
C4           O13   1.278       .  A
C4          C192   1.492       .  S
O5         Ni270   1.933       .  S
O5          C503   1.271   1_455  A
O6         Ni270   1.906       .  S
O6            C8   1.267       .  A
Ni7          O10   1.926       .  S
Ni7         O247   1.933       .  S
Ni7         O258   1.910       .  S
C8           O18   1.272   1_556  A
C8          C181   1.492       .  S
O9          Ni25   1.915       .  S
O9           C15   1.276   1_556  A
O10          C15   1.279       .  A
C11         O497   1.271       .  A
C11         C234   1.484       .  S
O12        Ni253   1.910   1_545  S
O12          C14   1.269       .  A
O13         Ni24   1.920       .  S
C14          O20   1.272   1_554  A
C14         C164   1.495       .  S
C15         C209   1.493       .  S
H16          O17   0.965   1_655  S
O17         Ni19   1.908   1_556  S
O17         Ni24   1.904       .  S
O17        Ni763   1.909   1_445  S
O18        Ni265   1.928       .  S
Ni19         O23   1.914       .  S
Ni19         O21   1.924       .  S
Ni19        O264   1.928   1_545  S
Ni19        O741   1.911   1_445  S
O20        Ni271   1.925   1_545  S
C22          O23   1.269       .  A
C22         O493   1.272   1_455  A
C22         C223   1.484       .  S
Ni24        O251   1.933   1_545  S
Ni24        O252   1.906   1_545  S
Ni25        O266   1.925       .  S
Ni25        O755   1.909       .  S
N27          C32   1.352       .  A
N27          C31   1.353       .  A
N27          H59   1.036       .  S
N28          C35   1.351       .  A
N28          C36   1.351       .  A
N29          C34   1.353   1_556  A
N29          C33   1.353   1_556  A
N29          H60   1.036       .  S
N30          C37   1.352       .  A
N30          C38   1.352       .  A
C31          C39   1.387   1_556  A
C31          C47   1.415       .  A
C32          C48   1.415       .  A
C32          C40   1.387   1_556  A
C33          C41   1.387       .  A
C33          C50   1.415   1_554  A
C34          C49   1.416       .  A
C34          C42   1.387       .  A
C35          C47   1.413       .  A
C35          C43   1.386       .  A
C36          C50   1.412       .  A
C36          C44   1.386       .  A
C37          C45   1.386       .  A
C37          C48   1.415       .  A
C38          C46   1.386       .  A
C38          C49   1.414   1_556  A
C39          C40   1.374       .  A
C39          H51   1.082       .  S
C40          H52   1.082       .  S
C41          C42   1.374       .  A
C41          H53   1.082       .  S
C42          H54   1.082       .  S
C43          C44   1.372       .  A
C43          H55   1.082       .  S
C44          H56   1.082       .  S
C45          C46   1.374       .  A
C45          H57   1.082       .  S
C46          H58   1.082       .  S
C47         C178   1.486       .  S
C48         C195   1.487       .  S
C49         C167   1.487       .  S
C50         C206   1.484   1_556  S
C61         C237   1.488       .  S
C61          N62   1.363       .  A
C61         N312   1.365       .  A
N62          C63   1.358       .  A
C63         C150   1.476       .  S
C63          N64   1.356       .  A
N64         C311   1.357       .  A
C65         C136   1.482       .  S
C65          N66   1.362       .  A
C65         N310   1.357   1_545  A
N66         C307   1.365   1_545  A
C67         C220   1.484       .  S
C67          N68   1.361       .  A
C67         N318   1.362   1_545  A
N68          C69   1.358       .  A
C69         C125   1.481       .  S
C69          N70   1.357       .  A
N70         C317   1.358   1_545  A
C71         C108   1.484       .  S
C71          N72   1.361       .  A
C71         N316   1.358       .  A
N72         C313   1.362       .  A
N73          C78   1.354       .  A
N73          C77   1.353       .  A
N73         H105   1.039       .  S
N74          C81   1.351       .  A
N74          C82   1.351       .  A
N75          C80   1.353       .  A
N75          C79   1.354       .  A
N75         H106   1.039       .  S
N76          C83   1.351       .  A
N76          C84   1.350       .  A
C77          C85   1.387       .  A
C77         C585   1.416       .  A
C78          C94   1.417       .  A
C78          C86   1.387       .  A
C79          C87   1.387       .  A
C79         C588   1.417       .  A
C80          C95   1.416       .  A
C80          C88   1.387       .  A
C81          C93   1.412       .  A
C81          C89   1.386       .  A
C82          C96   1.413       .  A
C82          C90   1.386       .  A
C83          C91   1.386       .  A
C83          C94   1.413       .  A
C84          C92   1.386       .  A
C84          C95   1.412       .  A
C85          C86   1.375       .  A
C85          H97   1.082       .  S
C86          H98   1.082       .  S
C87          C88   1.377       .  A
C87          H99   1.083       .  S
C88         H100   1.082       .  S
C89          C90   1.377       .  A
C89         H101   1.082       .  S
C90         H102   1.082       .  S
C91          C92   1.376       .  A
C91         H103   1.082       .  S
C92         H104   1.082       .  S
C93         C122   1.490       .  S
C93         C569   1.416   1_455  A
C94         C139   1.496       .  S
C95         C153   1.489       .  S
C96         C111   1.494       .  S
C96         C571   1.417   1_455  A
C107        C108   1.404       .  A
C107        C112   1.404       .  A
C107        H114   1.084       .  S
C108        C109   1.415       .  A
C109        C110   1.411       .  A
C109        N116   1.438   1_455  S
C110        C111   1.404       .  A
C110        H115   1.084   1_455  S
C111        C112   1.410       .  A
C112        N113   1.438       .  S
N113        H117   1.045       .  S
N113        H118   1.046       .  S
N116        H119   1.046       .  S
N116        H612   1.046       .  S
H120        N608   1.046       .  S
C121        C126   1.408       .  A
C121        C614   1.403       .  A
C121        H128   1.084       .  S
C122        C123   1.417       .  A
C122        C613   1.403   1_455  A
C123        C124   1.400       .  A
C123        N130   1.438       .  S
C124        C125   1.403       .  A
C124        H129   1.084       .  S
C125        C618   1.413       .  A
C126        C617   1.413       .  A
C126        N127   1.438       .  S
N127        H131   1.046       .  S
N127        H132   1.046       .  S
N130        H133   1.043       .  S
N130        H134   1.045       .  S
C135        C136   1.403       .  A
C135        C140   1.408       .  A
C135        H142   1.084       .  S
C136        C137   1.411       .  A
C137        C138   1.403       .  A
C137        N144   1.437       .  S
C138        C139   1.404       .  A
C138        H143   1.084       .  S
C139        C140   1.420       .  A
C140        N141   1.439       .  S
N141        H145   1.046       .  S
N141        H146   1.042       .  S
N144        H147   1.045       .  S
N144        H148   1.046       .  S
C149        C150   1.403       .  A
C149        C154   1.405       .  A
C149        H156   1.084       .  S
C150        C151   1.411       .  A
C151        C152   1.397       .  A
C151        N650   1.432       .  S
C152        C153   1.403       .  A
C152        H649   1.084       .  S
C153        C154   1.418       .  A
C154        N155   1.438       .  S
N155        H159   1.046       .  S
N155        H160   1.043       .  S
H157        C644   1.084       .  S
N158        C643   1.432       .  S
N158        H162   1.043       .  S
N158        H653   1.046       .  S
H161        N650   1.046       .  S
C163        C164   1.409   1_556  A
C163        C168   1.402       .  A
C163        H170   1.084       .  S
C164        C165   1.420       .  A
C165        C166   1.406       .  A
C165        N172   1.438       .  S
C166        C167   1.400       .  A
C166        H171   1.084       .  S
C167        C168   1.413   1_554  A
C168        N169   1.438       .  S
N169        H173   1.045       .  S
N169        H174   1.043       .  S
N172        H175   1.046       .  S
N172        H176   1.046       .  S
C177        C178   1.399       .  A
C177        C182   1.404       .  A
C177        H184   1.084       .  S
C178        C179   1.414   1_556  A
C179        C180   1.403       .  A
C179        N186   1.439       .  S
C180        C181   1.409   1_554  A
C180        H185   1.084       .  S
C181        C182   1.419       .  A
C182        N183   1.438       .  S
N183        H187   1.046       .  S
N183        H188   1.045       .  S
N186        H189   1.043       .  S
N186        H190   1.045       .  S
C191        C192   1.408       .  A
C191        C196   1.397       .  A
C191        H198   1.084       .  S
C192        C193   1.418   1_556  A
C193        C194   1.409       .  A
C193        N200   1.438       .  S
C194        C195   1.403   1_554  A
C194        H199   1.084       .  S
C195        C196   1.413       .  A
C196        N197   1.439       .  S
N197        H201   1.046       .  S
N197        H202   1.043       .  S
N200        H203   1.045       .  S
N200        H204   1.046       .  S
C205        C206   1.400   1_556  A
C205        C210   1.406       .  A
C205        H212   1.084       .  S
C206        C207   1.413       .  A
C207        C208   1.399       .  A
C207        N214   1.439       .  S
C208        C209   1.409       .  A
C208        H213   1.083       .  S
C209        C210   1.419   1_554  A
C210        N211   1.438       .  S
N211        H215   1.046       .  S
N211        H216   1.046       .  S
N214        H217   1.043       .  S
N214        H218   1.046       .  S
C219        C220   1.404       .  A
C219        C224   1.405   1_455  A
C219        H226   1.084   1_455  S
C220        C467   1.413   1_545  A
C221        C222   1.409       .  A
C221        C466   1.413       .  A
C221        N228   1.438       .  S
C222        C469   1.406       .  A
C222        H227   1.084       .  S
C223        C224   1.413   1_455  A
C223        C468   1.406   1_545  A
C224        N717   1.438       .  S
N225        C716   1.438       .  S
N225        H229   1.046       .  S
N225        H230   1.045       .  S
N228        H231   1.045       .  S
N228        H232   1.046       .  S
C233        C238   1.411       .  A
C233        C480   1.405   1_545  A
C233        H240   1.084       .  S
C234        C479   1.405       .  A
C234        C727   1.415       .  A
C235        C236   1.400       .  A
C235        C726   1.415       .  A
C235        N242   1.433   1_655  S
C236        C729   1.406       .  A
C236        H241   1.084   1_655  S
C237        C728   1.406       .  A
C237        C484   1.413       .  A
C238        C483   1.413   1_545  A
C238        N239   1.437       .  S
N239        H243   1.046       .  S
N239        H244   1.046       .  S
N242        H245   1.046       .  S
N242        H246   1.044       .  S
O247        C760   1.272       .  A
O248       Ni271   1.916       .  S
O248        C257   1.269       .  A
O249       Ni253   1.906       .  S
O249       Ni271   1.906   1_554  S
O249       Ni511   1.911   1_565  S
O249        H272   0.967       .  S
C250        O267   1.278   1_556  A
C250        O259   1.278       .  A
C250        C438   1.492       .  S
O251        C749   1.271   1_455  A
O252        C254   1.267       .  A
Ni253       O256   1.926       .  S
C254        O264   1.272   1_556  A
C254        C427   1.492       .  S
O255       Ni271   1.915       .  S
O255        C261   1.276   1_556  A
O256        C261   1.279       .  A
C257        O743   1.271       .  A
C257        C480   1.484       .  S
O258        C260   1.269       .  A
O259       Ni270   1.920       .  S
C260        O266   1.272   1_554  A
C260        C410   1.495       .  S
C261        C455   1.493       .  S
H262        O263   0.965   1_655  S
O263       Ni517   1.909   1_455  S
O263       Ni265   1.908   1_556  S
O263       Ni270   1.904       .  S
Ni265       O269   1.914       .  S
Ni265       O267   1.924       .  S
Ni265       O495   1.911   1_455  S
C268        O739   1.272   1_455  A
C268        O269   1.269       .  A
C268        C469   1.484       .  S
Ni271       O509   1.909   1_565  S
N273        C278   1.352       .  A
N273        C277   1.353       .  A
N273        H305   1.036       .  S
N274        C281   1.351       .  A
N274        C282   1.351       .  A
N275        C280   1.353   1_556  A
N275        C279   1.353   1_556  A
N275        H306   1.036       .  S
N276        C283   1.352       .  A
N276        C284   1.352       .  A
C277        C285   1.387   1_556  A
C277        C293   1.415       .  A
C278        C294   1.415       .  A
C278        C286   1.387   1_556  A
C279        C287   1.387       .  A
C279        C296   1.415   1_554  A
C280        C295   1.416       .  A
C280        C288   1.387       .  A
C281        C293   1.413       .  A
C281        C289   1.386       .  A
C282        C296   1.412       .  A
C282        C290   1.386       .  A
C283        C291   1.386       .  A
C283        C294   1.415       .  A
C284        C292   1.386       .  A
C284        C295   1.414   1_556  A
C285        C286   1.374       .  A
C285        H297   1.082       .  S
C286        H298   1.082       .  S
C287        C288   1.374       .  A
C287        H299   1.082       .  S
C288        H300   1.082       .  S
C289        C290   1.372       .  A
C289        H301   1.082       .  S
C290        H302   1.082       .  S
C291        C292   1.374       .  A
C291        H303   1.082       .  S
C292        H304   1.082       .  S
C293        C424   1.486       .  S
C294        C441   1.487       .  S
C295        C413   1.487       .  S
C296        C452   1.484   1_556  S
C307        C483   1.488       .  S
C307        N308   1.363       .  A
N308        C309   1.358       .  A
C309        C396   1.476       .  S
C309        N310   1.356       .  A
C311        C382   1.482       .  S
C311        N312   1.362       .  A
C313        C466   1.484       .  S
C313        N314   1.361       .  A
N314        C315   1.358       .  A
C315        C371   1.481       .  S
C315        N316   1.357       .  A
C317        C354   1.484       .  S
C317        N318   1.361       .  A
N319        C324   1.354       .  A
N319        C323   1.353       .  A
N319        H351   1.039       .  S
N320        C327   1.351       .  A
N320        C328   1.351       .  A
N321        C326   1.353       .  A
N321        C325   1.354       .  A
N321        H352   1.039       .  S
N322        C329   1.351       .  A
N322        C330   1.350       .  A
C323        C331   1.387       .  A
C323        C831   1.416       .  A
C324        C340   1.417       .  A
C324        C332   1.387       .  A
C325        C333   1.387       .  A
C325        C834   1.417       .  A
C326        C341   1.416       .  A
C326        C334   1.387       .  A
C327        C339   1.412       .  A
C327        C335   1.386       .  A
C328        C342   1.413       .  A
C328        C336   1.386       .  A
C329        C337   1.386       .  A
C329        C340   1.413       .  A
C330        C338   1.386       .  A
C330        C341   1.412       .  A
C331        C332   1.375       .  A
C331        H343   1.082       .  S
C332        H344   1.082       .  S
C333        C334   1.377       .  A
C333        H345   1.083       .  S
C334        H346   1.082       .  S
C335        C336   1.377       .  A
C335        H347   1.082       .  S
C336        H348   1.082       .  S
C337        C338   1.376       .  A
C337        H349   1.082       .  S
C338        H350   1.082       .  S
C339        C368   1.490       .  S
C339        C815   1.416   1_455  A
C340        C385   1.496       .  S
C341        C399   1.489       .  S
C342        C357   1.494       .  S
C342        C817   1.417   1_455  A
C353        C354   1.404       .  A
C353        C358   1.404       .  A
C353        H360   1.084       .  S
C354        C355   1.415       .  A
C355        C356   1.411       .  A
C355        N362   1.438   1_455  S
C356        C357   1.404       .  A
C356        H361   1.084   1_455  S
C357        C358   1.410       .  A
C358        N359   1.438       .  S
N359        H363   1.045       .  S
N359        H364   1.046       .  S
N362        H365   1.046       .  S
N362        H858   1.046       .  S
H366        N854   1.046       .  S
C367        C860   1.403       .  A
C367        C372   1.408       .  A
C367        H374   1.084       .  S
C368        C859   1.403   1_455  A
C368        C369   1.417       .  A
C369        C370   1.400       .  A
C369        N376   1.438       .  S
C370        C371   1.403       .  A
C370        H375   1.084       .  S
C371        C864   1.413       .  A
C372        C863   1.413       .  A
C372        N373   1.438       .  S
N373        H377   1.046       .  S
N373        H378   1.046       .  S
N376        H379   1.043       .  S
N376        H380   1.045       .  S
C381        C382   1.403       .  A
C381        C386   1.408       .  A
C381        H388   1.084       .  S
C382        C383   1.411       .  A
C383        C384   1.403       .  A
C383        N390   1.437       .  S
C384        C385   1.404       .  A
C384        H389   1.084       .  S
C385        C386   1.420       .  A
C386        N387   1.439       .  S
N387        H391   1.046       .  S
N387        H392   1.042       .  S
N390        H393   1.045       .  S
N390        H394   1.046       .  S
C395        C396   1.403       .  A
C395        C400   1.405       .  A
C395        H402   1.084       .  S
C396        C397   1.411       .  A
C397        C398   1.397       .  A
C397        N896   1.432       .  S
C398        C399   1.403       .  A
C398        H895   1.084       .  S
C399        C400   1.418       .  A
C400        N401   1.438       .  S
N401        H405   1.046       .  S
N401        H406   1.043       .  S
H403        C890   1.084       .  S
N404        C889   1.432       .  S
N404        H899   1.046       .  S
N404        H408   1.043       .  S
H407        N896   1.046       .  S
C409        C410   1.409   1_556  A
C409        C414   1.402       .  A
C409        H416   1.084       .  S
C410        C411   1.420       .  A
C411        C412   1.406       .  A
C411        N418   1.438       .  S
C412        C413   1.400       .  A
C412        H417   1.084       .  S
C413        C414   1.413   1_554  A
C414        N415   1.438       .  S
N415        H419   1.045       .  S
N415        H420   1.043       .  S
N418        H421   1.046       .  S
N418        H422   1.046       .  S
C423        C424   1.399       .  A
C423        C428   1.404       .  A
C423        H430   1.084       .  S
C424        C425   1.414   1_556  A
C425        C426   1.403       .  A
C425        N432   1.439       .  S
C426        C427   1.409   1_554  A
C426        H431   1.084       .  S
C427        C428   1.419       .  A
C428        N429   1.438       .  S
N429        H433   1.046       .  S
N429        H434   1.045       .  S
N432        H435   1.043       .  S
N432        H436   1.045       .  S
C437        C438   1.408       .  A
C437        C442   1.397       .  A
C437        H444   1.084       .  S
C438        C439   1.418   1_556  A
C439        C440   1.409       .  A
C439        N446   1.438       .  S
C440        C441   1.403   1_554  A
C440        H445   1.084       .  S
C441        C442   1.413       .  A
C442        N443   1.439       .  S
N443        H447   1.046       .  S
N443        H448   1.043       .  S
N446        H449   1.045       .  S
N446        H450   1.046       .  S
C451        C452   1.400   1_556  A
C451        C456   1.406       .  A
C451        H458   1.084       .  S
C452        C453   1.413       .  A
C453        C454   1.399       .  A
C453        N460   1.439       .  S
C454        C455   1.409       .  A
C454        H459   1.083       .  S
C455        C456   1.419   1_554  A
C456        N457   1.438       .  S
N457        H461   1.046       .  S
N457        H462   1.046       .  S
N460        H463   1.043       .  S
N460        H464   1.046       .  S
C465        C466   1.404       .  A
C465        C470   1.405   1_455  A
C465        H472   1.084   1_455  S
C467        C468   1.409       .  A
C467        N474   1.438       .  S
C468        H473   1.084       .  S
C469        C470   1.413   1_455  A
C470        N963   1.438       .  S
N471        C962   1.438       .  S
N471        H475   1.046       .  S
N471        H476   1.045       .  S
N474        H477   1.045       .  S
N474        H478   1.046       .  S
C479        C484   1.411       .  A
C479        H486   1.084       .  S
C480        C973   1.415       .  A
C481        C972   1.415       .  A
C481        C482   1.400       .  A
C481        N488   1.433   1_655  S
C482        C975   1.406       .  A
C482        H487   1.084   1_655  S
C483        C974   1.406       .  A
C484        N485   1.437       .  S
N485        H489   1.046       .  S
N485        H490   1.046       .  S
N488        H491   1.046       .  S
N488        H492   1.044       .  S
O493       Ni745   1.933   1_545  S
O494       Ni517   1.916       .  S
O494        C503   1.269       .  A
O495       Ni499   1.906       .  S
O495       Ni517   1.906   1_554  S
O495        H518   0.967       .  S
C496        O513   1.278   1_556  A
C496        O505   1.278       .  A
C496        C684   1.492       .  S
O497       Ni762   1.933       .  S
O498       Ni762   1.906       .  S
O498        C500   1.267       .  A
Ni499       O739   1.933       .  S
Ni499       O502   1.926       .  S
Ni499       O750   1.910       .  S
C500        O510   1.272   1_556  A
C500        C673   1.492       .  S
O501       Ni517   1.915       .  S
O501        C507   1.276   1_556  A
O502        C507   1.279       .  A
C503        C726   1.484       .  S
O504       Ni745   1.910   1_545  S
O504        C506   1.269       .  A
O505       Ni516   1.920       .  S
C506        O512   1.272   1_554  A
C506        C656   1.495       .  S
C507        C701   1.493       .  S
H508        O509   0.965       .  S
O509       Ni511   1.908   1_556  S
O509       Ni516   1.904       .  S
O510       Ni757   1.928       .  S
Ni511       O756   1.928   1_545  S
Ni511       O515   1.914       .  S
Ni511       O513   1.924       .  S
O512       Ni763   1.925   1_545  S
C514        O515   1.269       .  A
C514        C715   1.484       .  S
Ni516       O743   1.933   1_545  S
Ni516       O744   1.906   1_545  S
Ni517       O758   1.925       .  S
N519        C524   1.352       .  A
N519        C523   1.353       .  A
N519        H551   1.036       .  S
N520        C527   1.351       .  A
N520        C528   1.351       .  A
N521        C526   1.353   1_556  A
N521        C525   1.353   1_556  A
N521        H552   1.036       .  S
N522        C529   1.352       .  A
N522        C530   1.352       .  A
C523        C531   1.387   1_556  A
C523        C539   1.415       .  A
C524        C540   1.415       .  A
C524        C532   1.387   1_556  A
C525        C533   1.387       .  A
C525        C542   1.415   1_554  A
C526        C541   1.416       .  A
C526        C534   1.387       .  A
C527        C539   1.413       .  A
C527        C535   1.386       .  A
C528        C542   1.412       .  A
C528        C536   1.386       .  A
C529        C537   1.386       .  A
C529        C540   1.415       .  A
C530        C538   1.386       .  A
C530        C541   1.414   1_556  A
C531        C532   1.374       .  A
C531        H543   1.082       .  S
C532        H544   1.082       .  S
C533        C534   1.374       .  A
C533        H545   1.082       .  S
C534        H546   1.082       .  S
C535        C536   1.372       .  A
C535        H547   1.082       .  S
C536        H548   1.082       .  S
C537        C538   1.374       .  A
C537        H549   1.082       .  S
C538        H550   1.082       .  S
C539        C670   1.486       .  S
C540        C687   1.487       .  S
C541        C659   1.487       .  S
C542        C698   1.484   1_556  S
C553        C729   1.488       .  S
C553        N554   1.363       .  A
C553        N804   1.365       .  A
N554        C555   1.358       .  A
C555        C642   1.476       .  S
C555        N556   1.356       .  A
N556        C803   1.357       .  A
C557        C628   1.482       .  S
C557        N802   1.357   1_545  A
C557        N558   1.362       .  A
N558        C799   1.365   1_545  A
C559        C712   1.484       .  S
C559        N560   1.361       .  A
C559        N810   1.362   1_545  A
N560        C561   1.358       .  A
C561        C617   1.481       .  S
C561        N562   1.357       .  A
N562        C809   1.358   1_545  A
C563        C600   1.484       .  S
C563        N808   1.358       .  A
C563        N564   1.361       .  A
N564        C805   1.362       .  A
N565        C570   1.354       .  A
N565        C569   1.353       .  A
N565        H597   1.039   1_655  S
N566        C573   1.351       .  A
N566        C574   1.351       .  A
N567        C572   1.353       .  A
N567        C571   1.354       .  A
N567        H598   1.039   1_655  S
N568        C575   1.351       .  A
N568        C576   1.350       .  A
C569        C577   1.387       .  A
C570        C586   1.417       .  A
C570        C578   1.387       .  A
C571        C579   1.387       .  A
C572        C587   1.416       .  A
C572        C580   1.387       .  A
C573        C585   1.412       .  A
C573        C581   1.386       .  A
C574        C588   1.413       .  A
C574        C582   1.386       .  A
C575        C583   1.386       .  A
C575        C586   1.413       .  A
C576        C584   1.386       .  A
C576        C587   1.412       .  A
C577        C578   1.375       .  A
C577        H589   1.082       .  S
C578        H590   1.082       .  S
C579        C580   1.377       .  A
C579        H591   1.083       .  S
C580        H592   1.082       .  S
C581        C582   1.377       .  A
C581        H593   1.082       .  S
C582        H594   1.082       .  S
C583        C584   1.376       .  A
C583        H595   1.082       .  S
C584        H596   1.082       .  S
C585        C614   1.490       .  S
C586        C631   1.496       .  S
C587        C645   1.489       .  S
C588        C603   1.494       .  S
C599        C600   1.404       .  A
C599        C604   1.404       .  A
C599        H606   1.084       .  S
C600        C601   1.415       .  A
C601        C602   1.411       .  A
C601        N608   1.438       .  S
C602        C603   1.404       .  A
C602        H607   1.084       .  S
C603        C604   1.410       .  A
C604        N605   1.438       .  S
N605        H609   1.045       .  S
N605        H610   1.046       .  S
N608        H611   1.046       .  S
C613        C618   1.408   1_655  A
C613        H620   1.084       .  S
C614        C615   1.417       .  A
C615        C616   1.400       .  A
C615        N622   1.438       .  S
C616        C617   1.403       .  A
C616        H621   1.084       .  S
C618        N619   1.438   1_455  S
N619        H623   1.046       .  S
N619        H624   1.046       .  S
N622        H625   1.043       .  S
N622        H626   1.045       .  S
C627        C628   1.403       .  A
C627        C632   1.408       .  A
C627        H634   1.084       .  S
C628        C629   1.411   1_655  A
C629        C630   1.403       .  A
C629        N636   1.437       .  S
C630        C631   1.404   1_455  A
C630        H635   1.084       .  S
C631        C632   1.420       .  A
C632        N633   1.439       .  S
N633        H637   1.046       .  S
N633        H638   1.042       .  S
N636        H639   1.045       .  S
N636        H640   1.046       .  S
C641        C642   1.403       .  A
C641        C646   1.405       .  A
C641        H648   1.084       .  S
C642        C643   1.411   1_655  A
C643        C644   1.397       .  A
C644        C645   1.403   1_455  A
C645        C646   1.418       .  A
C646        N647   1.438       .  S
N647        H651   1.046       .  S
N647        H652   1.043       .  S
N650        H654   1.043       .  S
C655        C656   1.409   1_556  A
C655        C660   1.402       .  A
C655        H662   1.084       .  S
C656        C657   1.420       .  A
C657        C658   1.406       .  A
C657        N664   1.438       .  S
C658        C659   1.400       .  A
C658        H663   1.084       .  S
C659        C660   1.413   1_554  A
C660        N661   1.438       .  S
N661        H665   1.045       .  S
N661        H666   1.043       .  S
N664        H667   1.046       .  S
N664        H668   1.046       .  S
C669        C670   1.399       .  A
C669        C674   1.404       .  A
C669        H676   1.084       .  S
C670        C671   1.414   1_556  A
C671        C672   1.403       .  A
C671        N678   1.439       .  S
C672        C673   1.409   1_554  A
C672        H677   1.084       .  S
C673        C674   1.419       .  A
C674        N675   1.438       .  S
N675        H679   1.046       .  S
N675        H680   1.045       .  S
N678        H681   1.043       .  S
N678        H682   1.045       .  S
C683        C684   1.408       .  A
C683        C688   1.397       .  A
C683        H690   1.084       .  S
C684        C685   1.418   1_556  A
C685        C686   1.409       .  A
C685        N692   1.438       .  S
C686        C687   1.403   1_554  A
C686        H691   1.084       .  S
C687        C688   1.413       .  A
C688        N689   1.439       .  S
N689        H693   1.046       .  S
N689        H694   1.043       .  S
N692        H695   1.045       .  S
N692        H696   1.046       .  S
C697        C698   1.400   1_556  A
C697        C702   1.406       .  A
C697        H704   1.084       .  S
C698        C699   1.413       .  A
C699        C700   1.399       .  A
C699        N706   1.439       .  S
C700        C701   1.409       .  A
C700        H705   1.083       .  S
C701        C702   1.419   1_554  A
C702        N703   1.438       .  S
N703        H707   1.046       .  S
N703        H708   1.046       .  S
N706        H709   1.043       .  S
N706        H710   1.046       .  S
C711        C712   1.404       .  A
C711        C716   1.405       .  A
C711        H718   1.084       .  S
C712        C959   1.413   1_545  A
C713        C958   1.413       .  A
C713        C714   1.409       .  A
C713        N720   1.438       .  S
C714        C961   1.406       .  A
C714        H719   1.084       .  S
C715        C960   1.406   1_545  A
C715        C716   1.413       .  A
N717        H721   1.046       .  S
N717        H722   1.045       .  S
N720        H723   1.045       .  S
N720        H724   1.046       .  S
C725        C972   1.405   1_545  A
C725        C730   1.411       .  A
C725        H732   1.084       .  S
C726        C971   1.405       .  A
C727        C728   1.400       .  A
C727        N734   1.433       .  S
C728        H733   1.084       .  S
C729        C976   1.413       .  A
C730        C975   1.413   1_545  A
C730        N731   1.437       .  S
N731        H735   1.046       .  S
N731        H736   1.046       .  S
N734        H737   1.046       .  S
N734        H738   1.044       .  S
O740       Ni763   1.916       .  S
O740        C749   1.269       .  A
O741       Ni745   1.906       .  S
O741       Ni763   1.906   1_554  S
O741        H764   0.967       .  S
C742        O759   1.278   1_556  A
C742        O751   1.278       .  A
C742        C930   1.492       .  S
O744        C746   1.267       .  A
Ni745       O748   1.926       .  S
C746        O756   1.272   1_556  A
C746        C919   1.492       .  S
O747       Ni763   1.915       .  S
O747        C753   1.276   1_556  A
O748        C753   1.279       .  A
C749        C972   1.484       .  S
O750        C752   1.269       .  A
O751       Ni762   1.920       .  S
C752        O758   1.272   1_554  A
C752        C902   1.495       .  S
C753        C947   1.493       .  S
H754        O755   0.965       .  S
O755       Ni757   1.908   1_556  S
O755       Ni762   1.904       .  S
Ni757       O761   1.914       .  S
Ni757       O759   1.924       .  S
C760        O761   1.269       .  A
C760        C961   1.484       .  S
N765        C770   1.352       .  A
N765        C769   1.353       .  A
N765        H797   1.036       .  S
N766        C773   1.351       .  A
N766        C774   1.351       .  A
N767        C772   1.353   1_556  A
N767        C771   1.353   1_556  A
N767        H798   1.036       .  S
N768        C775   1.352       .  A
N768        C776   1.352       .  A
C769        C777   1.387   1_556  A
C769        C785   1.415       .  A
C770        C786   1.415       .  A
C770        C778   1.387   1_556  A
C771        C779   1.387       .  A
C771        C788   1.415   1_554  A
C772        C787   1.416       .  A
C772        C780   1.387       .  A
C773        C785   1.413       .  A
C773        C781   1.386       .  A
C774        C788   1.412       .  A
C774        C782   1.386       .  A
C775        C783   1.386       .  A
C775        C786   1.415       .  A
C776        C784   1.386       .  A
C776        C787   1.414   1_556  A
C777        C778   1.374       .  A
C777        H789   1.082       .  S
C778        H790   1.082       .  S
C779        C780   1.374       .  A
C779        H791   1.082       .  S
C780        H792   1.082       .  S
C781        C782   1.372       .  A
C781        H793   1.082       .  S
C782        H794   1.082       .  S
C783        C784   1.374       .  A
C783        H795   1.082       .  S
C784        H796   1.082       .  S
C785        C916   1.486       .  S
C786        C933   1.487       .  S
C787        C905   1.487       .  S
C788        C944   1.484   1_556  S
C799        C975   1.488       .  S
C799        N800   1.363       .  A
N800        C801   1.358       .  A
C801        C888   1.476       .  S
C801        N802   1.356       .  A
C803        C874   1.482       .  S
C803        N804   1.362       .  A
C805        C958   1.484       .  S
C805        N806   1.361       .  A
N806        C807   1.358       .  A
C807        C863   1.481       .  S
C807        N808   1.357       .  A
C809        C846   1.484       .  S
C809        N810   1.361       .  A
N811        C816   1.354       .  A
N811        C815   1.353       .  A
N811        H843   1.039   1_655  S
N812        C819   1.351       .  A
N812        C820   1.351       .  A
N813        C818   1.353       .  A
N813        C817   1.354       .  A
N813        H844   1.039   1_655  S
N814        C821   1.351       .  A
N814        C822   1.350       .  A
C815        C823   1.387       .  A
C816        C832   1.417       .  A
C816        C824   1.387       .  A
C817        C825   1.387       .  A
C818        C833   1.416       .  A
C818        C826   1.387       .  A
C819        C831   1.412       .  A
C819        C827   1.386       .  A
C820        C834   1.413       .  A
C820        C828   1.386       .  A
C821        C829   1.386       .  A
C821        C832   1.413       .  A
C822        C830   1.386       .  A
C822        C833   1.412       .  A
C823        C824   1.375       .  A
C823        H835   1.082       .  S
C824        H836   1.082       .  S
C825        C826   1.377       .  A
C825        H837   1.083       .  S
C826        H838   1.082       .  S
C827        C828   1.377       .  A
C827        H839   1.082       .  S
C828        H840   1.082       .  S
C829        C830   1.376       .  A
C829        H841   1.082       .  S
C830        H842   1.082       .  S
C831        C860   1.490       .  S
C832        C877   1.496       .  S
C833        C891   1.489       .  S
C834        C849   1.494       .  S
C845        C846   1.404       .  A
C845        C850   1.404       .  A
C845        H852   1.084       .  S
C846        C847   1.415       .  A
C847        C848   1.411       .  A
C847        N854   1.438       .  S
C848        C849   1.404       .  A
C848        H853   1.084       .  S
C849        C850   1.410       .  A
C850        N851   1.438       .  S
N851        H855   1.045       .  S
N851        H856   1.046       .  S
N854        H857   1.046       .  S
C859        C864   1.408   1_655  A
C859        H866   1.084       .  S
C860        C861   1.417       .  A
C861        C862   1.400       .  A
C861        N868   1.438       .  S
C862        C863   1.403       .  A
C862        H867   1.084       .  S
C864        N865   1.438   1_455  S
N865        H869   1.046       .  S
N865        H870   1.046       .  S
N868        H871   1.043       .  S
N868        H872   1.045       .  S
C873        C874   1.403       .  A
C873        C878   1.408       .  A
C873        H880   1.084       .  S
C874        C875   1.411   1_655  A
C875        C876   1.403       .  A
C875        N882   1.437       .  S
C876        C877   1.404   1_455  A
C876        H881   1.084       .  S
C877        C878   1.420       .  A
C878        N879   1.439       .  S
N879        H883   1.046       .  S
N879        H884   1.042       .  S
N882        H885   1.045       .  S
N882        H886   1.046       .  S
C887        C888   1.403       .  A
C887        C892   1.405       .  A
C887        H894   1.084       .  S
C888        C889   1.411   1_655  A
C889        C890   1.397       .  A
C890        C891   1.403   1_455  A
C891        C892   1.418       .  A
C892        N893   1.438       .  S
N893        H897   1.046       .  S
N893        H898   1.043       .  S
N896        H900   1.043       .  S
C901        C902   1.409   1_556  A
C901        C906   1.402       .  A
C901        H908   1.084       .  S
C902        C903   1.420       .  A
C903        C904   1.406       .  A
C903        N910   1.438       .  S
C904        C905   1.400       .  A
C904        H909   1.084       .  S
C905        C906   1.413   1_554  A
C906        N907   1.438       .  S
N907        H911   1.045       .  S
N907        H912   1.043       .  S
N910        H913   1.046       .  S
N910        H914   1.046       .  S
C915        C916   1.399       .  A
C915        C920   1.404       .  A
C915        H922   1.084       .  S
C916        C917   1.414   1_556  A
C917        C918   1.403       .  A
C917        N924   1.439       .  S
C918        C919   1.409   1_554  A
C918        H923   1.084       .  S
C919        C920   1.419       .  A
C920        N921   1.438       .  S
N921        H925   1.046       .  S
N921        H926   1.045       .  S
N924        H927   1.043       .  S
N924        H928   1.045       .  S
C929        C930   1.408       .  A
C929        C934   1.397       .  A
C929        H936   1.084       .  S
C930        C931   1.418   1_556  A
C931        C932   1.409       .  A
C931        N938   1.438       .  S
C932        C933   1.403   1_554  A
C932        H937   1.084       .  S
C933        C934   1.413       .  A
C934        N935   1.439       .  S
N935        H939   1.046       .  S
N935        H940   1.043       .  S
N938        H941   1.045       .  S
N938        H942   1.046       .  S
C943        C944   1.400   1_556  A
C943        C948   1.406       .  A
C943        H950   1.084       .  S
C944        C945   1.413       .  A
C945        C946   1.399       .  A
C945        N952   1.439       .  S
C946        C947   1.409       .  A
C946        H951   1.083       .  S
C947        C948   1.419   1_554  A
C948        N949   1.438       .  S
N949        H953   1.046       .  S
N949        H954   1.046       .  S
N952        H955   1.043       .  S
N952        H956   1.046       .  S
C957        C958   1.404       .  A
C957        C962   1.405       .  A
C957        H964   1.084       .  S
C959        C960   1.409       .  A
C959        N966   1.438       .  S
C960        H965   1.084       .  S
C961        C962   1.413       .  A
N963        H967   1.046       .  S
N963        H968   1.045       .  S
N966        H969   1.045       .  S
N966        H970   1.046       .  S
C971        C976   1.411       .  A
C971        H978   1.084       .  S
C973        C974   1.400       .  A
C973        N980   1.433       .  S
C974        H979   1.084       .  S
C976        N977   1.437       .  S
N977        H981   1.046       .  S
N977        H982   1.046       .  S
N980        H983   1.046       .  S
N980        H984   1.044       .  S
