geometry optimzed in LAMMPS
_audit_creation_date              2020-12-01 
_audit_creation_method            'lammps2cif' 
_symmetry_space_group_name_H-M    'P1' 
_symmetry_Int_Tables_number       1 
_symmetry_cell_setting            triclinic 
loop_ 
_symmetry_equiv_pos_as_xyz 
  x,y,z 
_cell_length_a                    44.17556171 
_cell_length_b                    37.61392290891891 
_cell_length_c                    27.109238526075128 
_cell_angle_alpha                 90.3851343358528 
_cell_angle_beta                  90.37783108366659 
_cell_angle_gamma                 114.8983010532662 
loop_ 
_atom_site_label 
_atom_site_type_symbol 
_atom_site_fract_x 
_atom_site_fract_y 
_atom_site_fract_z 
_atom_site_charge 
Zr1        Zr  0.32236151  0.16117652  0.65648392     2.17500
O2          O  0.32484230  0.12725308  0.58058865    -0.49900
O3          O  0.32141011  0.21601594  0.61031465    -0.73100
O4          O  0.26736228  0.12450616  0.61870318    -0.79900
O5          O  0.41801864  0.20025143  0.67101361    -0.81600
O6          O  0.22787503  0.11316638  0.67739016    -0.77300
O7          O  0.37496898  0.17576455  0.61566046    -0.88900
O8          O  0.33109837  0.26616504  0.66428862    -0.74900
O9          O  0.29039300  0.18737818  0.70202772    -0.84300
O10         O  0.36172773  0.21647293  0.70072047    -0.84000
O11         O  0.28794153  0.10879001  0.70907635    -0.70800
O12         O  0.35412614  0.13674665  0.70734291    -0.82900
Zr13       Zr  0.32509980  0.16558808  0.85218095     2.26400
Zr14       Zr  0.25648149  0.13589067  0.75580810     2.06300
Zr15       Zr  0.39268380  0.19250951  0.75300654     2.10000
Zr16       Zr  0.32987457  0.24191719  0.74702557     1.78800
O17         O  0.42844315  0.15803930  0.75948591    -0.91700
O18         O  0.28560333  0.26436997  0.74449393    -0.39500
O19         O  0.36045636  0.21811068  0.80019700    -0.76200
O20         O  0.29469341  0.19175321  0.80108595    -0.94900
O21         O  0.28637806  0.11028506  0.80804836    -0.88200
O22         O  0.35836106  0.14088806  0.80676329    -0.91000
C23         C  0.32647737  0.25143069  0.62060315     1.02700
C24         C  0.40614004  0.19050743  0.62695387     1.15700
C25         C  0.23689836  0.11048760  0.63317348     1.06500
O26         O  0.21757434  0.16568989  0.74401388    -0.93200
O27         O  0.23157815  0.13773899  0.83514206    -0.88900
O28         O  0.27372011  0.16004842  0.89185576    -0.82100
C29         C  0.24298685  0.14888773  0.87902524     1.13100
O30         O  0.31513096  0.04065952  0.69428799    -0.95100
Zr31       Zr  0.31937270  0.08591337  0.76164613     1.88900
O32         O  0.32811252  0.11051960  0.89635890    -0.71800
O33         O  0.21242907  0.07081407  0.76917254    -0.51000
O34         O  0.26679038  0.02744667  0.76436390    -0.95700
O35         O  0.36447647  0.06461564  0.76235172    -0.52900
O36         O  0.31806186  0.05980303  0.84333761    -0.72300
C37         C  0.32381343  0.07522581  0.88658951     1.00000
O38         O  0.32358817  0.18453520  0.93814483    -0.61100
O39         O  0.43904993  0.25727896  0.74990112    -0.55900
O40         O  0.37835501  0.21294800  0.88326638    -0.92600
O41         O  0.42035077  0.21703408  0.83242651    -0.91000
O42         O  0.38166349  0.30129062  0.74316906    -0.91400
O43         O  0.33417829  0.28663304  0.81489359    -0.90200
C44         C  0.40926389  0.22458830  0.87303155     1.18900
H45         H  0.37641272  0.23607268  0.67858551     0.34800
H46         H  0.28303689  0.20360529  0.82038162     0.45700
H47         H  0.37234625  0.13375328  0.82832698     0.39200
H48         H  0.27329860  0.08627266  0.69002842     0.35700
H49         H  0.29681715  0.29214103  0.73443829     0.27500
H50         H  0.19178427  0.07250541  0.75756379     0.33400
H51         H  0.27187799  0.00798795  0.78288529     0.38500
H52         H  0.37492747  0.32163432  0.73077934     0.33800
H53         H  0.45880272  0.25234839  0.74196804     0.32700
H54         H  0.45141539  0.17880934  0.75669898     0.34300
H55         H  0.35604454  0.04040441  0.78217177     0.33300
H56         H  0.33781853  0.27364218  0.84455257     0.37300
H57         H  0.34106449  0.17941211  0.95568389     0.30000
H58         H  0.31428945  0.13687350  0.55473913     0.34300
H59         H  0.31255348  0.01590538  0.71012646     0.37100
H60         H  0.43494135  0.26956283  0.71993324     0.29700
H61         H  0.33175097  0.21343437  0.93837324     0.42600
H62         H  0.22715959  0.19028813  0.76367627     0.32700
H63         H  0.27165087  0.25070224  0.71557247     0.40300
H64         H  0.38236045  0.08413494  0.78305880     0.32100
H65         H  0.21646483  0.05384846  0.74443350     0.32200
H66         H  0.30933882  0.09940342  0.58524045     0.32500
C67         C  0.01962195  0.01690672  0.99690924     0.81700
N68         N  0.49199242  0.01863058  0.97899195    -0.76700
C69         C  0.47090924  0.48968008  0.01067878     0.84100
N70         N  0.47194882  0.45419441  0.01173409    -0.76600
C71         C  0.99499443  0.44891033  0.00006628     0.84200
N72         N  0.02249433  0.48206118  0.99025855    -0.78300
C73         C  0.32257069  0.46012304  0.04906520     0.04600
C74         C  0.31177491  0.47729405  0.01051763    -0.11600
C75         C  0.32544479  0.99040034  0.96245900     0.02100
C76         C  0.35894698  0.99615279  0.96216189    -0.10100
C77         C  0.37851376  0.48806044  0.01523941     0.04600
C78         C  0.35612814  0.46621755  0.05130729    -0.09500
H79         H  0.28611160  0.47356145  0.00859952     0.10100
H80         H  0.37613449  0.01635425  0.93622520     0.07700
H81         H  0.36470481  0.45315066  0.08067011     0.07500
C82         C  0.16339564  0.14114330  0.94602863     0.04600
C83         C  0.13101279  0.11100069  0.94904680    -0.11600
C84         C  0.10826855  0.11326873  0.98331640     0.02100
C85         C  0.11768235  0.14612390  0.01428375    -0.10100
C86         C  0.14974553  0.17699262  0.01118320     0.04600
C87         C  0.17244760  0.17453621  0.97675463    -0.09500
H88         H  0.12371586  0.08535784  0.92530108     0.10100
H89         H  0.10001137  0.14772260  0.04079621     0.07700
H90         H  0.19705808  0.19843049  0.97421237     0.07500
C91         C  0.48490909  0.28200810  0.95634912     0.04600
C92         C  0.01214456  0.27638731  0.99464477    -0.11600
C93         C  0.03009287  0.30384828  0.03169239     0.02100
C94         C  0.02560489  0.33852275  0.03695585    -0.10100
C95         C  0.00327159  0.34552482  0.00618441     0.04600
C96         C  0.48400112  0.31867402  0.96267412    -0.09500
H97         H  0.01576992  0.24982273  0.98991853     0.10100
H98         H  0.04016042  0.36048763  0.06410623     0.07700
H99         H  0.46949179  0.32780322  0.93752634     0.07500
Zr100      Zr  0.16614498  0.32988586  0.16061217     2.17500
O101        O  0.15499327  0.35623055  0.08399961    -0.49900
O102        O  0.16399117  0.27118225  0.11725039    -0.73100
O103        O  0.21592041  0.36881001  0.11350331    -0.79900
O104        O  0.07485146  0.29905765  0.19287346    -0.81600
O105        O  0.26011655  0.39337911  0.16653603    -0.77300
O106        O  0.11010832  0.31188297  0.12797199    -0.88900
O107        O  0.16223360  0.22685895  0.17503876    -0.74900
O108        O  0.20599303  0.31288725  0.20159345    -0.84300
O109        O  0.13476251  0.27585924  0.21183964    -0.84000
O110        O  0.20039010  0.38787511  0.20774230    -0.70800
O111        O  0.13668348  0.35373296  0.21667937    -0.82900
Zr112      Zr  0.17983456  0.33705519  0.35841578     2.26400
Zr113      Zr  0.23997367  0.36995122  0.24902061     2.06300
Zr114      Zr  0.10575187  0.29933498  0.26767149     2.10000
Zr115      Zr  0.17452973  0.25949341  0.25399717     1.78800
O116        O  0.06418907  0.32346376  0.28828216    -0.91700
O117        O  0.22143962  0.24351170  0.23616260    -0.39500
O118        O  0.14417831  0.28058412  0.31087575    -0.76200
O119        O  0.21018230  0.31529605  0.30131273    -0.94900
O120        O  0.21082086  0.39170055  0.30749025    -0.88200
O121        O  0.14017844  0.35452964  0.31715347    -0.91000
C122        C  0.16092009  0.23699865  0.13047903     1.02700
C123        C  0.08128963  0.30355709  0.14660859     1.15700
C124        C  0.24684223  0.38986036  0.12335307     1.06500
O125        O  0.28010080  0.34252875  0.23309335    -0.93200
O126        O  0.27247414  0.37980435  0.32440653    -0.88900
O127        O  0.23730142  0.35933578  0.38982664    -0.82100
C128        C  0.26658830  0.37314096  0.37052440     1.13100
O129        O  0.16617352  0.45185228  0.20343163    -0.95100
Zr130      Zr  0.17121536  0.40895550  0.26700548     1.88900
O131        O  0.18297314  0.39404478  0.40501879    -0.71800
O132        O  0.28221861  0.43731266  0.25557237    -0.51000
O133        O  0.22080718  0.47099890  0.26532295    -0.95700
O134        O  0.12157418  0.42169745  0.27219062    -0.52900
O135        O  0.17422924  0.43463818  0.35064861    -0.72300
C136        C  0.17899151  0.42504870  0.39452406     1.00000
O137        O  0.18512100  0.29832671  0.42735645    -0.61100
O138        O  0.06359549  0.23241261  0.25666078    -0.55900
O139        O  0.12786119  0.30446021  0.40547632    -0.92600
O140        O  0.08578923  0.27620402  0.34916085    -0.91000
O141        O  0.12756712  0.19734987  0.27106460    -0.91400
O142        O  0.18725262  0.22398203  0.31985764    -0.90200
C143        C  0.09726439  0.28253834  0.39344393     1.18900
H144        H  0.11884748  0.25403033  0.19299223     0.34800
H145        H  0.22565559  0.30783571  0.31890148     0.45700
H146        H  0.12672480  0.36090110  0.34046390     0.39200
H147        H  0.21134250  0.40991679  0.18631012     0.35700
H148        H  0.21114412  0.21537840  0.22679512     0.27500
H149        H  0.30238173  0.43690742  0.24033656     0.33400
H150        H  0.23361691  0.47110948  0.29547648     0.39300
H151        H  0.13365942  0.17723770  0.25599834     0.33800
H152        H  0.07171330  0.21634137  0.27690685     0.32700
H153        H  0.04251879  0.30142714  0.28000255     0.34300
H154        H  0.11433918  0.41656830  0.30691335     0.33300
H155        H  0.18018015  0.23281756  0.35038587     0.37300
H156        H  0.16559426  0.27263004  0.42455751     0.30000
H157        H  0.16588536  0.34785527  0.05738903     0.34300
H158        H  0.16936335  0.47648211  0.22072558     0.37100
H159        H  0.04382868  0.23169013  0.27441658     0.29700
H160        H  0.20412912  0.29200517  0.41920324     0.42600
H161        H  0.27736801  0.33543124  0.19758239     0.32700
H162        H  0.23087885  0.25725034  0.20506865     0.40300
H163        H  0.10423609  0.40000580  0.25320898     0.32100
H164        H  0.27480645  0.45232826  0.23234673     0.32200
H165        H  0.16766522  0.38506139  0.08664103     0.32500
C166        C  0.47616611  0.49327817  0.49496195     0.81700
N167        N  0.46885995  0.02407101  0.49047283    -0.76700
C168        C  0.49808557  0.05634066  0.49571374     0.84100
N169        N  0.04113725  0.05301928  0.50964019    -0.76600
C170        C  0.03971504  0.01698284  0.50036284     0.84200
N171        N  0.50433699  0.48698758  0.49722446    -0.78300
C172        C  0.18871537  0.04620591  0.52184534     0.04600
C173        C  0.19674549  0.02436808  0.48595352    -0.11600
C174        C  0.15778839  0.49631047  0.47374874     0.02100
C175        C  0.12596443  0.49585791  0.47387765    -0.10100
C176        C  0.13120562  0.01713796  0.49150728     0.04600
C177        C  0.15558808  0.04240093  0.52409158    -0.09500
H178        H  0.22210110  0.02713627  0.48306804     0.10100
H179        H  0.10873539  0.48203114  0.44356354     0.07700
H180        H  0.14847909  0.05934226  0.55012980     0.07500
C181        C  0.05178108  0.23831374  0.51378601     0.04600
C182        C  0.04791101  0.19937013  0.50940411    -0.11600
C183        C  0.02376873  0.16969492  0.53647999     0.02100
C184        C  0.48237213  0.17406704  0.54311769    -0.10100
C185        C  0.48287227  0.21158882  0.54599128     0.04600
C186        C  0.50349504  0.24101756  0.51351440    -0.09500
H187        H  0.06334623  0.19204067  0.48400575     0.10100
H188        H  0.46662784  0.15116814  0.56764627     0.07700
H189        H  0.50368375  0.26989425  0.51475009     0.07500
C190        C  0.32459661  0.36786613  0.47548419     0.04600
C191        C  0.32083050  0.33985348  0.51197105    -0.11600
C192        C  0.34801873  0.34316202  0.54190050     0.02100
C193        C  0.37921970  0.37434062  0.53493643    -0.10100
C194        C  0.38361634  0.40210109  0.49852497     0.04600
C195        C  0.35637394  0.39920681  0.46914454    -0.09500
H196        H  0.29654344  0.31604059  0.51795516     0.10100
H197        H  0.40017893  0.37712845  0.55824532     0.07700
H198        H  0.36008625  0.42192749  0.44254379     0.07500
C199        C  0.49970576  0.12674646  0.50454222    -0.11800
C200        C  0.49829257  0.09428097  0.50016903    -0.13400
C201        C  0.07020006  0.01270493  0.49612453    -0.11800
C202        C  0.09762820  0.01351440  0.49379129    -0.13400
C203        C  0.41608393  0.43430901  0.49329210    -0.11800
C204        C  0.44370243  0.46085444  0.49261737    -0.13400
C205        C  0.07294467  0.26020111  0.43138375    -0.15000
C206        C  0.07546000  0.26797175  0.48015568    -0.30200
H207        H  0.05146563  0.23450206  0.41799232     0.14000
H208        H  0.09505389  0.29464637  0.49508742     0.14600
C209        C  0.16630547  0.47741654  0.43122459    -0.15000
C210        C  0.17867276  0.45052293  0.43640173    -0.30200
H211        H  0.15711473  0.48115518  0.39521995     0.14000
H212        H  0.18533097  0.44431427  0.47297196     0.14600
C213        C  0.29458289  0.36377547  0.44596740    -0.15000
C214        C  0.29621472  0.38123459  0.40224035    -0.30200
H215        H  0.27025843  0.34364949  0.45928097     0.14000
H216        H  0.32027890  0.39905525  0.38634012     0.14600
C217        C  0.05460635  0.29758385  0.06394287    -0.15000
C218        C  0.05389859  0.30141180  0.11331698    -0.30200
H219        H  0.07399787  0.29126552  0.04686559     0.14000
H220        H  0.03306289  0.30519845  0.12980688     0.14600
C221        C  0.15373927  0.20557523  0.09346227    -0.15000
C222        C  0.15965351  0.21124523  0.04504197    -0.30200
H223        H  0.14331142  0.17573114  0.10721976     0.14000
H224        H  0.17265957  0.24066390  0.03066667     0.14600
C225        C  0.26792156  0.41273311  0.08224657    -0.15000
C226        C  0.30033919  0.43685046  0.08894640    -0.30200
H227        H  0.25644376  0.41002393  0.04602521     0.14000
H228        H  0.31184508  0.43800277  0.12484214     0.14600
C229        C  0.04927176  0.05289482  0.99216780    -0.11800
C230        C  0.07566423  0.08114871  0.98794316    -0.13400
C231        C  0.99790011  0.41272284  0.00631668    -0.11800
C232        C  0.00048230  0.38217669  0.00850786    -0.13400
C233        C  0.43948465  0.49191486  0.01448261    -0.11800
C234        C  0.41208753  0.49137846  0.01582840    -0.13400
C235        C  0.46122067  0.21849033  0.58317319    -0.15000
C236        C  0.42882685  0.19313004  0.58584076    -0.30200
H237        H  0.47216615  0.24224403  0.60987874     0.14000
H238        H  0.41827243  0.17159842  0.55629433     0.14600
C239        C  0.32812539  0.05188582  0.92750167    -0.15000
C240        C  0.31426123  0.01240235  0.92713867    -0.30200
H241        H  0.34479657  0.06766054  0.95768818     0.14000
H242        H  0.29605850  0.99607569  0.89889415     0.14600
C243        C  0.43247580  0.25007371  0.91062294    -0.15000
C244        C  0.46403345  0.25469552  0.91738402    -0.30200
H245        H  0.42232373  0.26488848  0.93570917     0.14000
H246        H  0.47381289  0.23733321  0.89616881     0.14600
C247        C  0.21564242  0.07298354  0.55542014    -0.15000
C248        C  0.20994718  0.08802756  0.59778060    -0.30200
H249        H  0.24119686  0.07876845  0.54622661     0.14000
H250        H  0.18468691  0.08077617  0.60968855     0.14600
C251        C  0.32733874  0.27710818  0.57916711    -0.15000
C252        C  0.34427436  0.31620656  0.58315203    -0.30200
H253        H  0.31578396  0.26382459  0.54421338     0.14000
H254        H  0.35826742  0.32888938  0.61684731     0.14600
C255        C  0.21983484  0.15092874  0.91717035    -0.15000
C256        C  0.18670324  0.13741631  0.90919439    -0.30200
H257        H  0.23042764  0.16439116  0.95249310     0.14000
H258        H  0.17595567  0.12177297  0.87503391     0.14600
Zr259      Zr  0.33323449  0.65861632  0.65667392     2.17500
O260        O  0.34107175  0.62519160  0.58369652    -0.49900
O261        O  0.33022089  0.71059664  0.60591298    -0.73100
O262        O  0.28067245  0.61843793  0.61464300    -0.79900
O263        O  0.42860117  0.70195411  0.68126541    -0.81600
O264        O  0.23829454  0.60146496  0.66962551    -0.77300
O265        O  0.38815358  0.67594091  0.62213340    -0.88900
O266        O  0.33205494  0.75956915  0.65692322    -0.74900
O267        O  0.29702856  0.68172374  0.69647346    -0.84300
O268        O  0.36886879  0.71606595  0.70103644    -0.84000
O269        O  0.29918967  0.60561857  0.70903534    -0.70800
O270        O  0.36526395  0.63869458  0.71334085    -0.82900
Zr271      Zr  0.32920752  0.66752514  0.85226675     2.26400
Zr272      Zr  0.26335771  0.62963928  0.74990870     2.06300
Zr273      Zr  0.39986851  0.69639224  0.75920802     2.10000
Zr274      Zr  0.33293761  0.73886321  0.74124742     1.78800
O275        O  0.43902139  0.66675079  0.76928330    -0.91700
O276        O  0.28603375  0.75684698  0.73864462    -0.39500
O277        O  0.36419802  0.72038523  0.80048334    -0.76200
O278        O  0.29823349  0.68816987  0.79460210    -0.94900
O279        O  0.29424676  0.60971390  0.80794033    -0.88200
O280        O  0.36581125  0.64484444  0.81262903    -0.91000
C281        C  0.33079796  0.74458721  0.61388344     1.02700
C282        C  0.41875342  0.69158287  0.63659410     1.15700
C283        C  0.24973770  0.60078526  0.62615536     1.06500
O284        O  0.21979353  0.65068389  0.72900760    -0.93200
O285        O  0.23595619  0.63498134  0.82605820    -0.88900
O286        O  0.27532066  0.65688830  0.88717703    -0.82100
C287        C  0.24529307  0.64584171  0.87091877     1.13100
O288        O  0.33298476  0.54482897  0.70067088    -0.95100
Zr289      Zr  0.33093158  0.58761288  0.76738576     1.88900
O290        O  0.32840800  0.61306606  0.90178418    -0.71800
O291        O  0.22416418  0.56305794  0.76928290    -0.51000
O292        O  0.28106160  0.52599786  0.77017191    -0.95700
O293        O  0.37763224  0.56963318  0.77769384    -0.52900
O294        O  0.32761618  0.56441936  0.85106154    -0.72300
C295        C  0.32759791  0.57895777  0.89394157     1.00000
O296        O  0.32308722  0.69874555  0.92849205    -0.61100
O297        O  0.44186869  0.76383540  0.75501038    -0.55900
O298        O  0.38254408  0.70776741  0.89235178    -0.92600
O299        O  0.42554506  0.71818162  0.84028530    -0.91000
O300        O  0.38289358  0.80008628  0.73531123    -0.91400
O301        O  0.33516014  0.78572192  0.80510409    -0.90200
C302        C  0.41378602  0.72116934  0.88256059     1.18900
H303        H  0.38359062  0.73576148  0.67902015     0.34800
H304        H  0.28501845  0.69918367  0.81163275     0.45700
H305        H  0.37952664  0.63925851  0.83645861     0.39200
H306        H  0.28640154  0.58224566  0.68996076     0.35700
H307        H  0.29506844  0.78312071  0.72348208     0.27500
H308        H  0.20223636  0.56132742  0.75793351     0.33400
H309        H  0.28753638  0.50832197  0.79016282     0.38500
H310        H  0.37545339  0.81816596  0.71802957     0.33800
H311        H  0.46345275  0.76169544  0.75487312     0.32700
H312        H  0.46129276  0.68916893  0.76998220     0.34300
H313        H  0.36771235  0.54304603  0.79199403     0.33300
H314        H  0.33351747  0.77167536  0.83643894     0.37300
H315        H  0.33568337  0.69188444  0.95421727     0.30000
H316        H  0.33141908  0.63400170  0.55581473     0.34300
H317        H  0.32693440  0.51880734  0.71561932     0.37100
H318        H  0.43967026  0.77260587  0.72136037     0.29700
H319        H  0.33573127  0.72728992  0.92351169     0.42600
H320        H  0.22659785  0.67628902  0.74605398     0.32700
H321        H  0.27074641  0.73929174  0.71320337     0.40300
H322        H  0.39148719  0.58662135  0.80475512     0.32100
H323        H  0.22945364  0.54627718  0.74577027     0.32200
H324        H  0.32609674  0.59709742  0.58777233     0.32500
C325        C  0.01973726  0.51615590  0.98264111     0.81700
N326        N  0.49933832  0.52263466  0.00414880    -0.76700
C327        C  0.46518617  0.98449213  0.98845178     0.84100
N328        N  0.46912572  0.95085950  0.99387900    -0.76600
C329        C  0.99489395  0.94806822  0.00052816     0.84200
N330        N  0.02242705  0.98234488  0.99639365    -0.78300
C331        C  0.31465394  0.94314390  0.02915602     0.04600
C332        C  0.30308064  0.96326699  0.99536758    -0.11600
C333        C  0.33466457  0.50016382  0.97492143     0.02100
C334        C  0.36784525  0.50501497  0.97723384    -0.10100
C335        C  0.37023856  0.97558691  0.99461567     0.04600
C336        C  0.34831650  0.94962742  0.02826322    -0.09500
H337        H  0.27734772  0.95929847  0.99600144     0.10100
H338        H  0.38532278  0.52185980  0.94920705     0.07700
H339        H  0.35750882  0.93433591  0.05389446     0.07500
C340        C  0.16357359  0.63961083  0.92932217     0.04600
C341        C  0.13100187  0.60974258  0.92937997    -0.11600
C342        C  0.10739305  0.61126187  0.96245979     0.02100
C343        C  0.11589515  0.64298529  0.99492569    -0.10100
C344        C  0.14813240  0.67352684  0.99497794     0.04600
C345        C  0.17187501  0.67197848  0.96175290    -0.09500
H346        H  0.12433645  0.58470451  0.90471972     0.10100
H347        H  0.09739729  0.64375261  0.02050803     0.07700
H348        H  0.19671798  0.69560891  0.96163673     0.07500
C349        C  0.49263443  0.78351734  0.95810013     0.04600
C350        C  0.00999012  0.77382491  0.98029825    -0.11600
C351        C  0.02474236  0.79823654  0.02171899     0.02100
C352        C  0.02122988  0.83356799  0.02703780    -0.10100
C353        C  0.00356492  0.84450894  0.99185981     0.04600
C354        C  0.48964023  0.81916263  0.96135612    -0.09500
H355        H  0.01249111  0.74656476  0.97559656     0.10100
H356        H  0.03312963  0.85326017  0.05772239     0.07700
H357        H  0.47135374  0.82389010  0.93871262     0.07500
Zr358      Zr  0.15928207  0.82083203  0.14931164     2.17500
O359        O  0.14630497  0.84546448  0.07273350    -0.49900
O360        O  0.15683671  0.76296673  0.10456256    -0.73100
O361        O  0.20827388  0.85676475  0.09928085    -0.79900
O362        O  0.06960931  0.79701328  0.18555301    -0.81600
O363        O  0.25428902  0.87600755  0.14866863    -0.77300
O364        O  0.10299011  0.80453181  0.11924429    -0.88900
O365        O  0.15404077  0.71747089  0.16110019    -0.74900
O366        O  0.19689415  0.79887417  0.18757838    -0.84300
O367        O  0.12585513  0.76908111  0.20230387    -0.84000
O368        O  0.19831377  0.87750618  0.19380310    -0.70800
O369        O  0.13405203  0.84933627  0.20661193    -0.82900
Zr370      Zr  0.17858408  0.82924219  0.34462344     2.26400
Zr371      Zr  0.23580285  0.85473895  0.23263272     2.06300
Zr372      Zr  0.10121492  0.79727395  0.26015450     2.10000
Zr373      Zr  0.16353528  0.74780569  0.24157820     1.78800
O374        O  0.06229456  0.82630488  0.27659125    -0.91700
O375        O  0.20860148  0.72729882  0.23043484    -0.39500
O376        O  0.13800090  0.77412484  0.30029717    -0.76200
O377        O  0.20406180  0.80200220  0.28652604    -0.94900
O378        O  0.21122026  0.88164502  0.29200028    -0.88200
O379        O  0.14079133  0.85127675  0.30647168    -0.91000
C380        C  0.15376810  0.72867024  0.11677937     1.02700
C381        C  0.07501465  0.79905777  0.13883528     1.15700
C382        C  0.23988572  0.87443147  0.10674926     1.06500
O383        O  0.27205817  0.82243586  0.21436042    -0.93200
O384        O  0.26938546  0.86298249  0.30730024    -0.88900
O385        O  0.23571803  0.84856731  0.37445727    -0.82100
C386        C  0.26433547  0.85876278  0.35399910     1.13100
O387        O  0.17245857  0.94809969  0.19020610    -0.95100
Zr388      Zr  0.17349275  0.90321002  0.25399655     1.88900
O389        O  0.18536805  0.88748504  0.39161011    -0.71800
O390        O  0.28248627  0.91932863  0.23540415    -0.51000
O391        O  0.22621088  0.96142249  0.25085083    -0.95700
O392        O  0.12783526  0.92291006  0.26429508    -0.52900
O393        O  0.18167674  0.93071683  0.33645297    -0.72300
C394        C  0.18504354  0.92041378  0.38040674     1.00000
O395        O  0.18527879  0.79034860  0.41229733    -0.61100
O396        O  0.05774879  0.73050996  0.25792151    -0.55900
O397        O  0.12843119  0.80018962  0.39452877    -0.92600
O398        O  0.08235618  0.78384925  0.34538589    -0.91000
O399        O  0.11250983  0.68792384  0.24913340    -0.91400
O400        O  0.16660548  0.70634969  0.30830302    -0.90200
C401        C  0.09669265  0.78603405  0.38749638     1.18900
H402        H  0.10880967  0.74796552  0.18388966     0.34800
H403        H  0.21863308  0.79279130  0.30354318     0.45700
H404        H  0.12943018  0.85999192  0.33075362     0.39200
H405        H  0.20994153  0.89902468  0.17194575     0.35700
H406        H  0.19731854  0.69925537  0.22082910     0.27500
H407        H  0.29999779  0.91684731  0.21493797     0.33400
H408        H  0.22328088  0.98085679  0.27280652     0.39300
H409        H  0.11811641  0.66692020  0.23568646     0.33800
H410        H  0.06527424  0.71622665  0.28205588     0.32700
H411        H  0.04050465  0.80368551  0.28133568     0.34300
H412        H  0.12085414  0.91713942  0.29905345     0.33300
H413        H  0.16048224  0.71700783  0.33818739     0.37300
H414        H  0.16398632  0.76658179  0.41410007     0.30000
H415        H  0.15621341  0.83596401  0.04592765     0.34300
H416        H  0.17522218  0.97242905  0.20787822     0.37100
H417        H  0.03824521  0.73231289  0.27359790     0.29700
H418        H  0.20118340  0.78007809  0.40016342     0.42600
H419        H  0.26557313  0.81161751  0.18056713     0.32700
H420        H  0.22004465  0.74063182  0.20011360     0.40300
H421        H  0.10907900  0.90341317  0.24483602     0.32100
H422        H  0.27482896  0.93632397  0.21613762     0.32200
H423        H  0.15953814  0.87425433  0.07396054     0.32500
C424        C  0.46880028  0.98801403  0.48800016     0.81700
N425        N  0.47850856  0.53040733  0.49692130    -0.76700
C426        C  0.50885196  0.56117367  0.50078304     0.84100
N427        N  0.02478390  0.55070133  0.49635099    -0.76600
C428        C  0.02504591  0.51490956  0.49955985     0.84200
N429        N  0.49808387  0.98425717  0.49126729    -0.78300
C430        C  0.17064278  0.53329771  0.55180090     0.04600
C431        C  0.18033252  0.51524073  0.51271490    -0.11600
C432        C  0.17222644  0.99961786  0.45290282     0.02100
C433        C  0.13959103  0.99624635  0.45572706    -0.10100
C434        C  0.11588648  0.51241521  0.51302053     0.04600
C435        C  0.13793880  0.53060812  0.55214308    -0.09500
H436        H  0.20515004  0.51613989  0.51226928     0.10100
H437        H  0.12070570  0.97734300  0.42990380     0.07700
H438        H  0.13000716  0.54389853  0.58205517     0.07500
C439        C  0.02096508  0.73062722  0.46762228     0.04600
C440        C  0.01873890  0.69244994  0.46242249    -0.11600
C441        C  0.99728411  0.66235388  0.49197667     0.02100
C442        C  0.49735361  0.67793874  0.55567285    -0.10100
C443        C  0.49959372  0.71565295  0.56549711     0.04600
C444        C  0.52315014  0.74793645  0.53998552    -0.09500
H445        H  0.03363466  0.68613071  0.43502645     0.10100
H446        H  0.47980740  0.65299010  0.57573311     0.07700
H447        H  0.52502877  0.77717531  0.54706949     0.07500
C448        C  0.32109407  0.85528798  0.46218872     0.04600
C449        C  0.31746604  0.82777987  0.49949072    -0.11600
C450        C  0.34426070  0.83295399  0.53149728     0.02100
C451        C  0.37480631  0.86547810  0.52582461    -0.10100
C452        C  0.37897768  0.89262695  0.48867798     0.04600
C453        C  0.35219312  0.88786568  0.45722309    -0.09500
H454        H  0.29358001  0.80306865  0.50459747     0.10100
H455        H  0.39538530  0.86985599  0.55082648     0.07700
H456        H  0.35553471  0.91015564  0.43008689     0.07500
C457        C  0.51439057  0.63318495  0.51063300    -0.11800
C458        C  0.51148782  0.60021746  0.50485587    -0.13400
C459        C  0.05614479  0.51223083  0.50710786    -0.11800
C460        C  0.08318212  0.51193465  0.51151572    -0.13400
C461        C  0.41065608  0.92615265  0.48465791    -0.11800
C462        C  0.43749704  0.95398075  0.48468939    -0.13400
C463        C  0.07561948  0.76799243  0.43064345    -0.15000
C464        C  0.04322122  0.76109783  0.43380907    -0.30200
H465        H  0.08637541  0.75630907  0.45893939     0.14000
H466        H  0.03214396  0.77389148  0.40746800     0.14600
C467        C  0.18010414  0.97865718  0.41275965    -0.15000
C468        C  0.18693306  0.94761967  0.42107506    -0.30200
H469        H  0.17432854  0.98474639  0.37560808     0.14000
H470        H  0.19022434  0.93990755  0.45867097     0.14600
C471        C  0.29153875  0.85032171  0.43098727    -0.15000
C472        C  0.29388554  0.86570463  0.38556703    -0.30200
H473        H  0.26695740  0.83185194  0.44506773     0.14000
H474        H  0.31822043  0.88148277  0.36920906     0.14600
C475        C  0.04646374  0.78909337  0.05694885    -0.15000
C476        C  0.04777428  0.79776079  0.10560085    -0.30200
H477        H  0.06307624  0.77717973  0.04206281     0.14000
H478        H  0.02945061  0.80681557  0.12101837     0.14600
C479        C  0.14805824  0.69861045  0.07841165    -0.15000
C480        C  0.15695313  0.70625601  0.03102348    -0.30200
H481        H  0.13636952  0.66825904  0.09021960     0.14000
H482        H  0.17135961  0.73617206  0.01912091     0.14600
C483        C  0.26039081  0.89623978  0.06454442    -0.15000
C484        C  0.29350584  0.91772832  0.06873357    -0.30200
H485        H  0.24770220  0.89594534  0.02998742     0.14000
H486        H  0.30609050  0.91643374  0.10281571     0.14600
C487        C  0.04906426  0.55095007  0.97248767    -0.11800
C488        C  0.07512265  0.57892967  0.96600319    -0.13400
C489        C  0.99796098  0.91159472  0.99935331    -0.11800
C490        C  0.00057605  0.88100313  0.99696671    -0.13400
C491        C  0.43247623  0.98348693  0.99135870    -0.11800
C492        C  0.40434414  0.98071930  0.99311569    -0.13400
C493        C  0.47623486  0.71989701  0.60159737    -0.15000
C494        C  0.44358151  0.69549951  0.59857004    -0.30200
H495        H  0.48579615  0.74158813  0.63107780     0.14000
H496        H  0.43450489  0.67626371  0.56648557     0.14600
C497        C  0.32814073  0.55575415  0.93757250    -0.15000
C498        C  0.32468557  0.51855888  0.93384528    -0.30200
H499        H  0.33391122  0.57044799  0.97334312     0.14000
H500        H  0.31969348  0.50365959  0.89824820     0.14600
C501        C  0.43709547  0.74376575  0.92248714    -0.15000
C502        C  0.47003470  0.75267041  0.92365261    -0.30200
H503        H  0.42683627  0.75560491  0.95127884     0.14000
H504        H  0.48066812  0.73918145  0.89754572     0.14600
C505        C  0.19377346  0.55550669  0.59270722    -0.15000
C506        C  0.22658960  0.57743996  0.58610988    -0.30200
H507        H  0.18297968  0.55602459  0.62846634     0.14000
H508        H  0.23712308  0.57842432  0.54977627     0.14600
C509        C  0.33042006  0.76826470  0.57045442    -0.15000
C510        C  0.34046575  0.80728400  0.57434401    -0.30200
H511        H  0.32389118  0.75407506  0.53444135     0.14000
H512        H  0.34966894  0.82178090  0.60968006     0.14600
C513        C  0.22057276  0.64786584  0.90627797    -0.15000
C514        C  0.18812086  0.63624076  0.89455298    -0.30200
H515        H  0.22951074  0.65988685  0.94283474     0.14000
H516        H  0.17880474  0.62208791  0.85908304     0.14600
Zr517      Zr  0.83735831  0.16000872  0.65464390     2.17500
O518        O  0.84556993  0.12105950  0.58812392    -0.49900
O519        O  0.83409884  0.21103279  0.60270609    -0.73100
O520        O  0.78528747  0.12213916  0.61007241    -0.79900
O521        O  0.93203441  0.20422406  0.68201039    -0.81600
O522        O  0.74200552  0.10606831  0.66340721    -0.77300
O523        O  0.89297477  0.18044932  0.62050503    -0.88900
O524        O  0.83398126  0.25909002  0.65372692    -0.74900
O525        O  0.80127469  0.18412441  0.69294373    -0.84300
O526        O  0.87296305  0.21699545  0.70009696    -0.84000
O527        O  0.80112332  0.10745059  0.70566696    -0.70800
O528        O  0.86747822  0.13876609  0.71287434    -0.82900
Zr529      Zr  0.82943081  0.16775750  0.84934344     2.26400
Zr530      Zr  0.76542481  0.13238152  0.74490974     2.06300
Zr531      Zr  0.90207926  0.19595141  0.75969597     2.10000
Zr532      Zr  0.83711270  0.24071421  0.73850686     1.78800
O533        O  0.93885042  0.16329096  0.77145165    -0.91700
O534        O  0.79184087  0.26147075  0.73651702    -0.39500
O535        O  0.86631798  0.22060048  0.79914225    -0.76200
O536        O  0.80055021  0.19025420  0.79042942    -0.94900
O537        O  0.79414989  0.11058046  0.80433417    -0.88200
O538        O  0.86600356  0.14432265  0.81140910    -0.91000
C539        C  0.83317827  0.24425336  0.61071168     1.02700
C540        C  0.92329009  0.19562137  0.63654066     1.15700
C541        C  0.75406615  0.10550055  0.62039844     1.06500
O542        O  0.72203038  0.15385452  0.72444640    -0.93200
O543        O  0.73663269  0.13855498  0.81905617    -0.88900
O544        O  0.77535289  0.15930551  0.88103179    -0.82100
C545        C  0.74568010  0.14942002  0.86399038     1.13100
O546        O  0.83148710  0.04439063  0.69828684    -0.95100
Zr547      Zr  0.83089611  0.08779729  0.76520590     1.88900
O548        O  0.82976490  0.11392475  0.89958005    -0.71800
O549        O  0.72553635  0.06572828  0.76253389    -0.51000
O550        O  0.78100406  0.02615688  0.76723478    -0.95700
O551        O  0.87731349  0.06966545  0.77717840    -0.52900
O552        O  0.82583494  0.06401425  0.84861452    -0.72300
C553        C  0.82753297  0.07916785  0.89155043     1.00000
O554        O  0.82115720  0.19606142  0.92654609    -0.61100
O555        O  0.94621874  0.26233794  0.76074089    -0.55900
O556        O  0.88145100  0.20947834  0.89053258    -0.92600
O557        O  0.92564475  0.21756183  0.84209454    -0.91000
O558        O  0.88737348  0.30111121  0.72838571    -0.91400
O559        O  0.84205263  0.28807253  0.80331086    -0.90200
C560        C  0.91283196  0.22190866  0.88286727     1.18900
H561        H  0.88822225  0.23674463  0.67866064     0.34800
H562        H  0.78753929  0.20188683  0.80673440     0.45700
H563        H  0.87905354  0.13822271  0.83583550     0.39200
H564        H  0.78829763  0.08438043  0.68609402     0.35700
H565        H  0.80005083  0.28505479  0.71553495     0.27500
H566        H  0.70347439  0.06558333  0.75541793     0.33400
H567        H  0.78832690  0.00728698  0.78274275     0.38500
H568        H  0.87977504  0.31887294  0.71067685     0.33800
H569        H  0.96680763  0.25923841  0.75267617     0.32700
H570        H  0.96138242  0.18491101  0.77555134     0.34300
H571        H  0.86708976  0.04299584  0.79118789     0.33300
H572        H  0.84802540  0.27755501  0.83339707     0.37300
H573        H  0.83338144  0.18857581  0.95220893     0.30000
H574        H  0.83714112  0.12857586  0.55782984     0.34300
H575        H  0.83100643  0.02057509  0.71427612     0.37100
H576        H  0.94176824  0.27500646  0.73140576     0.29700
H577        H  0.83361417  0.22480658  0.92321065     0.42600
H578        H  0.72866942  0.16709463  0.69229230     0.32700
H579        H  0.77410468  0.24108868  0.71646043     0.40300
H580        H  0.89073314  0.08639899  0.80472969     0.32100
H581        H  0.72864013  0.04948258  0.73587638     0.32200
H582        H  0.82954155  0.09370063  0.59448158     0.32500
C583        C  0.52274259  0.01897047  0.97509804     0.81700
N584        N  0.98902768  0.01714130  0.00151818    -0.76700
C585        C  0.96187128  0.48390175  0.99459216     0.84100
N586        N  0.96464768  0.44975596  0.00200675    -0.76600
C587        C  0.50143345  0.45160383  0.00660725     0.84200
N588        N  0.52988130  0.48445067  0.00002658    -0.78300
C589        C  0.81182693  0.44607843  0.03068487     0.04600
C590        C  0.80091903  0.46673887  0.99674865    -0.11600
C591        C  0.82550198  0.99368510  0.96977679     0.02100
C592        C  0.85862252  0.99920015  0.97672895    -0.10100
C593        C  0.86809890  0.47898483  0.99874050     0.04600
C594        C  0.84547901  0.45248955  0.03113979    -0.09500
H595        H  0.77511296  0.46252064  0.99613342     0.10100
H596        H  0.87830342  0.02139011  0.95578493     0.07700
H597        H  0.85408846  0.43656855  0.05669763     0.07500
C598        C  0.66507868  0.14613849  0.92281473     0.04600
C599        C  0.63278789  0.11580927  0.92294486    -0.11600
C600        C  0.60937356  0.11602627  0.95721729     0.02100
C601        C  0.61781684  0.14692421  0.99105986    -0.10100
C602        C  0.64988288  0.17796978  0.99147607     0.04600
C603        C  0.67344245  0.17763705  0.95682702    -0.09500
H604        H  0.62617805  0.09140198  0.89724519     0.10100
H605        H  0.59924567  0.14672489  0.01713458     0.07700
H606        H  0.69815749  0.20152398  0.95667655     0.07500
C607        C  0.98835552  0.28255600  0.96533685     0.04600
C608        C  0.50499156  0.27139646  0.98805451    -0.11600
C609        C  0.52217966  0.29620747  0.02766558     0.02100
C610        C  0.52072685  0.33258701  0.03354757    -0.10100
C611        C  0.50212550  0.34395191  0.00069865     0.04600
C612        C  0.98448000  0.31752444  0.97113517    -0.09500
H613        H  0.50627328  0.24345750  0.98305592     0.10100
H614        H  0.53493817  0.35259134  0.06278724     0.07700
H615        H  0.96726910  0.32340309  0.94743233     0.07500
Zr616      Zr  0.65666848  0.32282843  0.15037440     2.17500
O617        O  0.64300512  0.35435903  0.08062926    -0.49900
O618        O  0.65558796  0.26670550  0.10266316    -0.73100
O619        O  0.70479141  0.35879430  0.09876295    -0.79900
O620        O  0.56690324  0.29377164  0.18930056    -0.81600
O621        O  0.75105060  0.37733303  0.14760784    -0.77300
O622        O  0.59957131  0.30128542  0.12198745    -0.88900
O623        O  0.65353206  0.22088108  0.15836274    -0.74900
O624        O  0.69507937  0.30142295  0.18710417    -0.84300
O625        O  0.62414208  0.27022426  0.20307083    -0.84000
O626        O  0.69570503  0.37934313  0.19480121    -0.70800
O627        O  0.63097091  0.34923366  0.20977586    -0.82900
Zr628      Zr  0.67757515  0.33006217  0.34512953     2.26400
Zr629      Zr  0.73388320  0.35722228  0.23216461     2.06300
Zr630      Zr  0.59943093  0.29631487  0.26339788     2.10000
Zr631      Zr  0.66251769  0.24940595  0.24038049     1.78800
O632        O  0.55696479  0.31969391  0.28153575    -0.91700
O633        O  0.70731030  0.22843076  0.23034973    -0.39500
O634        O  0.63736869  0.27428402  0.30149936    -0.76200
O635        O  0.70282395  0.30377213  0.28537285    -0.94900
O636        O  0.70928151  0.38313641  0.29266986    -0.88200
O637        O  0.63890270  0.35123270  0.30833788    -0.91000
C638        C  0.65308898  0.23245089  0.11415527     1.02700
C639        C  0.57168952  0.29496652  0.14248803     1.15700
C640        C  0.73646148  0.37619265  0.10597602     1.06500
O641        O  0.77271176  0.32882913  0.21207804    -0.93200
O642        O  0.76834125  0.36446796  0.30544276    -0.88900
O643        O  0.73502161  0.34948808  0.37302929    -0.82100
C644        C  0.76348450  0.35972518  0.35211361     1.13100
O645        O  0.66832539  0.44640354  0.18971472    -0.95100
Zr646      Zr  0.67054961  0.40381334  0.25583226     1.88900
O647        O  0.68363227  0.38798544  0.39274612    -0.71800
O648        O  0.77779825  0.42372213  0.23512176    -0.51000
O649        O  0.72162147  0.46418872  0.25287112    -0.95700
O650        O  0.62394029  0.42172029  0.26594908    -0.52900
O651        O  0.67818378  0.43087893  0.33858788    -0.72300
C652        C  0.68211142  0.42046653  0.38227483     1.00000
O653        O  0.68437510  0.28988838  0.41116743    -0.61100
O654        O  0.55984956  0.22760076  0.26245399    -0.55900
O655        O  0.62823394  0.30050394  0.39669037    -0.92600
O656        O  0.58128091  0.28312530  0.34932124    -0.91000
O657        O  0.61108102  0.18997568  0.24734150    -0.91400
O658        O  0.66620097  0.20743238  0.30597518    -0.90200
C659        C  0.59635817  0.28576654  0.39093838     1.18900
H660        H  0.60718823  0.24902838  0.18462939     0.34800
H661        H  0.71768445  0.29464298  0.30169920     0.45700
H662        H  0.62751996  0.35956683  0.33300140     0.39200
H663        H  0.70705674  0.40096712  0.17293477     0.35700
H664        H  0.69622177  0.20136643  0.21697754     0.27500
H665        H  0.79665146  0.42222980  0.21707397     0.33400
H666        H  0.71618248  0.48415050  0.26978436     0.39300
H667        H  0.61694448  0.16859493  0.23608367     0.33800
H668        H  0.56348265  0.21717465  0.29428597     0.32700
H669        H  0.53547174  0.29636340  0.27724488     0.34300
H670        H  0.61884102  0.41887927  0.30159935     0.33300
H671        H  0.65900581  0.21680260  0.33596290     0.37300
H672        H  0.66361896  0.26534403  0.41087352     0.30000
H673        H  0.65127276  0.34599293  0.05088457     0.34300
H674        H  0.66988841  0.47071749  0.20615844     0.37100
H675        H  0.53771809  0.22810894  0.26566829     0.29700
H676        H  0.70136791  0.28123454  0.39928252     0.42600
H677        H  0.76608403  0.31759358  0.17849339     0.32700
H678        H  0.72057854  0.24409579  0.20253618     0.40300
H679        H  0.60474822  0.39997050  0.25006125     0.32100
H680        H  0.76971596  0.43902386  0.21339963     0.32200
H681        H  0.65752428  0.38271123  0.08457765     0.32500
C682        C  0.96688495  0.48516952  0.48725641     0.81700
N683        N  0.98264470  0.02692026  0.50890215    -0.76700
C684        C  0.01272052  0.05803522  0.51396196     0.84100
N685        N  0.52722253  0.05267571  0.49876351    -0.76600
C686        C  0.52735001  0.01677338  0.49653471     0.84200
N687        N  0.99608016  0.48202176  0.49501168    -0.78300
C688        C  0.67504465  0.04113672  0.54377300     0.04600
C689        C  0.68512882  0.02293524  0.50538514    -0.11600
C690        C  0.66481078  0.49538317  0.45896046     0.02100
C691        C  0.63273559  0.49373434  0.46318068    -0.10100
C692        C  0.61983979  0.01765599  0.50530829     0.04600
C693        C  0.64199648  0.03747416  0.54383099    -0.09500
H694        H  0.71004659  0.02413463  0.50532047     0.10100
H695        H  0.61319262  0.47574105  0.43761396     0.07700
H696        H  0.63370055  0.05070192  0.57338679     0.07500
C697        C  0.52360544  0.23260688  0.47905814     0.04600
C698        C  0.52260639  0.19482395  0.47745172    -0.11600
C699        C  0.50183092  0.16571730  0.50879857     0.02100
C700        C  0.00326250  0.17842216  0.56834411    -0.10100
C701        C  0.00637241  0.21696581  0.57345341     0.04600
C702        C  0.03143930  0.24734478  0.54705665    -0.09500
H703        H  0.53730497  0.18767963  0.45053260     0.10100
H704        H  0.98436170  0.15492675  0.58880404     0.07700
H705        H  0.03377550  0.27711648  0.55019430     0.07500
C706        C  0.81945921  0.35394581  0.45959893     0.04600
C707        C  0.81500014  0.32640388  0.49714000    -0.11600
C708        C  0.84150626  0.33077117  0.52921741     0.02100
C709        C  0.87249357  0.36252822  0.52368517    -0.10100
C710        C  0.87742565  0.38967270  0.48633431     0.04600
C711        C  0.85104486  0.38565391  0.45449446    -0.09500
H712        H  0.79075772  0.30230452  0.50233241     0.10100
H713        H  0.89276879  0.36638396  0.54905276     0.07700
H714        H  0.85504526  0.40801898  0.42720329     0.07500
C715        C  0.01880091  0.12976987  0.52971160    -0.11800
C716        C  0.01490606  0.09649301  0.52303790    -0.13400
C717        C  0.55864122  0.01383339  0.50101400    -0.11800
C718        C  0.58627689  0.01490374  0.50427253    -0.13400
C719        C  0.90927849  0.42284478  0.48303060    -0.11800
C720        C  0.93596588  0.45080602  0.48376823    -0.13400
C721        C  0.57635444  0.26769646  0.43519721    -0.15000
C722        C  0.54427015  0.26142646  0.44185637    -0.30200
H723        H  0.58811249  0.25634796  0.46242494     0.14000
H724        H  0.53232282  0.27431314  0.41710074     0.14600
C725        C  0.67114409  0.47397089  0.41751444    -0.15000
C726        C  0.68340814  0.44705473  0.42351663    -0.30200
H727        H  0.66080375  0.47649150  0.38189306     0.14000
H728        H  0.69100688  0.44190567  0.45998892     0.14600
C729        C  0.79024132  0.35008340  0.42850172    -0.15000
C730        C  0.79294527  0.36580577  0.38325685    -0.30200
H731        H  0.76552151  0.33219331  0.44259971     0.14000
H732        H  0.81731330  0.38110155  0.36681337     0.14600
C733        C  0.54379518  0.28600512  0.06107113    -0.15000
C734        C  0.54373061  0.29181740  0.11011210    -0.30200
H735        H  0.56186974  0.27695814  0.04475290     0.14000
H736        H  0.52421700  0.29849915  0.12618582     0.14600
C737        C  0.64761632  0.20267065  0.07517183    -0.15000
C738        C  0.65846842  0.21037346  0.02844527    -0.30200
H739        H  0.63467312  0.17228734  0.08635673     0.14000
H740        H  0.67430857  0.24021971  0.01773683     0.14600
C741        C  0.75708618  0.39834287  0.06407393    -0.15000
C742        C  0.79007306  0.42027670  0.06934780    -0.30200
H743        H  0.74472882  0.39807809  0.02921640     0.14000
H744        H  0.80223115  0.41909203  0.10390173     0.14600
C745        C  0.55143571  0.05471404  0.96569710    -0.11800
C746        C  0.57725434  0.08326469  0.96004814    -0.13400
C747        C  0.50227511  0.41402121  0.00657292    -0.11800
C748        C  0.50231515  0.38208567  0.00495553    -0.13400
C749        C  0.92966671  0.48447403  0.99623169    -0.11800
C750        C  0.90194256  0.48308050  0.99751873    -0.13400
C751        C  0.98202116  0.22368016  0.60535472    -0.15000
C752        C  0.94918946  0.20039119  0.59971192    -0.30200
H753        H  0.99101731  0.24495496  0.63535972     0.14000
H754        H  0.94099201  0.18132025  0.56736244     0.14600
C755        C  0.82878166  0.05563366  0.93444088    -0.15000
C756        C  0.81766404  0.01638860  0.93143857    -0.30200
H757        H  0.84066618  0.07090655  0.96830328     0.14000
H758        H  0.80426639  0.00061495  0.89869858     0.14600
C759        C  0.93483492  0.24470244  0.92368904    -0.15000
C760        C  0.96756959  0.25332987  0.92787220    -0.30200
H761        H  0.92348357  0.25619990  0.95133763     0.14000
H762        H  0.97915419  0.23992655  0.90323543     0.14600
C763        C  0.69792854  0.06340313  0.58490753    -0.15000
C764        C  0.73114582  0.08344452  0.57954855    -0.30200
H765        H  0.68680032  0.06477677  0.62009593     0.14000
H766        H  0.74220449  0.08372914  0.54381687     0.14600
C767        C  0.83159664  0.26725486  0.56735208    -0.15000
C768        C  0.83698471  0.30506958  0.57200724    -0.30200
H769        H  0.82821009  0.25392733  0.53084946     0.14000
H770        H  0.84282301  0.31926063  0.60806785     0.14600
C771        C  0.72129069  0.15275065  0.89889994    -0.15000
C772        C  0.68932414  0.14366037  0.88673964    -0.30200
H773        H  0.73006911  0.16319081  0.93606641     0.14000
H774        H  0.67994056  0.13115096  0.85052731     0.14600
Zr775      Zr  0.82268757  0.65910236  0.65250633     2.17500
O776        O  0.82095784  0.61789114  0.58157422    -0.49900
O777        O  0.82295219  0.71345025  0.60325982    -0.73100
O778        O  0.76633975  0.62326274  0.61810315    -0.79900
O779        O  0.91801410  0.69872778  0.66036423    -0.81600
O780        O  0.72923905  0.61154810  0.68045250    -0.77300
O781        O  0.87337274  0.67228662  0.60782247    -0.88900
O782        O  0.83160584  0.76424534  0.65568760    -0.74900
O783        O  0.79237116  0.68700904  0.69871872    -0.84300
O784        O  0.86354318  0.71578611  0.69281646    -0.84000
O785        O  0.79033748  0.60859545  0.70882635    -0.70800
O786        O  0.85637397  0.63710250  0.70330156    -0.82900
Zr787      Zr  0.83302206  0.67171603  0.84831209     2.26400
Zr788      Zr  0.76077869  0.63743824  0.75624506     2.06300
Zr789      Zr  0.89661575  0.69441116  0.74455748     2.10000
Zr790      Zr  0.83334217  0.74313885  0.73938912     1.78800
O791        O  0.93271316  0.66020043  0.74580449    -0.91700
O792        O  0.78729013  0.76265474  0.73924965    -0.39500
O793        O  0.86640764  0.72225259  0.79227463    -0.76200
O794        O  0.80064200  0.69487084  0.79705953    -0.94900
O795        O  0.79278416  0.61493701  0.80835808    -0.88200
O796        O  0.86401051  0.64493842  0.80137258    -0.91000
C797        C  0.82746353  0.74892275  0.61235551     1.02700
C798        C  0.90477923  0.68753026  0.61725891     1.15700
C799        C  0.73650506  0.60868462  0.63527032     1.06500
O800        O  0.71957696  0.66428974  0.74792712    -0.93200
O801        O  0.73951646  0.64257821  0.83679311    -0.88900
O802        O  0.78206385  0.66082994  0.89292544    -0.82100
C803        C  0.75147696  0.65159477  0.88074999     1.13100
O804        O  0.81886189  0.54179798  0.69544227    -0.95100
Zr805      Zr  0.82362214  0.58829641  0.76137037     1.88900
O806        O  0.83018635  0.61604280  0.89736295    -0.71800
O807        O  0.71960634  0.57227279  0.77751767    -0.51000
O808        O  0.77104355  0.53025012  0.76801229    -0.95700
O809        O  0.86796698  0.56593748  0.76636698    -0.52900
O810        O  0.82296141  0.56552791  0.84504333    -0.72300
C811        C  0.82642249  0.58079067  0.88832992     1.00000
O812        O  0.84008224  0.71893389  0.91485807    -0.61100
O813        O  0.94240826  0.75918994  0.73727090    -0.55900
O814        O  0.88854485  0.69747748  0.88467143    -0.92600
O815        O  0.92710813  0.71662517  0.82349683    -0.91000
O816        O  0.88426168  0.80278157  0.72891679    -0.91400
O817        O  0.83995029  0.79093187  0.80441770    -0.90200
C818        C  0.91870321  0.71337936  0.86934643     1.18900
H819        H  0.87745423  0.73458885  0.66919020     0.34800
H820        H  0.78951032  0.70694977  0.81710301     0.45700
H821        H  0.87832839  0.63792986  0.82241890     0.39200
H822        H  0.77508388  0.58552146  0.69124990     0.35700
H823        H  0.79708663  0.78991556  0.72707684     0.27500
H824        H  0.69779750  0.57324260  0.77195020     0.33400
H825        H  0.77626516  0.51174921  0.78834948     0.38500
H826        H  0.87706851  0.82115170  0.71181489     0.33800
H827        H  0.96211511  0.75409489  0.72959083     0.32700
H828        H  0.95564510  0.68131619  0.74524007     0.34300
H829        H  0.87964519  0.57635606  0.79811756     0.33300
H830        H  0.85041448  0.78312122  0.83221814     0.37300
H831        H  0.86207560  0.74106970  0.90956959     0.30000
H832        H  0.81036560  0.62618714  0.55438835     0.34300
H833        H  0.81666570  0.51754016  0.71222651     0.37100
H834        H  0.93768389  0.76998741  0.70644968     0.29700
H835        H  0.82405317  0.73028217  0.90715582     0.42600
H836        H  0.72896652  0.68911834  0.76715857     0.32700
H837        H  0.77235364  0.74717705  0.71209668     0.40300
H838        H  0.88414563  0.58116498  0.74097459     0.32100
H839        H  0.72102001  0.55487566  0.75094024     0.32200
H840        H  0.80463892  0.59109161  0.58997243     0.32500
C841        C  0.52882704  0.51994830  0.99885287     0.81700
N842        N  0.98942471  0.51717151  0.98487357    -0.76700
C843        C  0.96137991  0.98267568  0.00565190     0.84100
N844        N  0.96441516  0.94825337  0.00496301    -0.76600
C845        C  0.49987071  0.95133949  0.99010362     0.84200
N846        N  0.52662423  0.98534064  0.98063070    -0.78300
C847        C  0.80725411  0.94049698  0.02978640     0.04600
C848        C  0.79992484  0.96405549  0.99573241    -0.11600
C849        C  0.82408662  0.49483534  0.96558350     0.02100
C850        C  0.85760259  0.50057966  0.96674575    -0.10100
C851        C  0.86628585  0.97485790  0.00829711     0.04600
C852        C  0.84074887  0.94555221  0.03476273    -0.09500
H853        H  0.77433418  0.95990746  0.99006756     0.10100
H854        H  0.87537560  0.52131468  0.94191124     0.07700
H855        H  0.84722578  0.92671727  0.05841460     0.07500
C856        C  0.67276547  0.64387981  0.94837816     0.04600
C857        C  0.64055350  0.61351982  0.94985700    -0.11600
C858        C  0.61747458  0.61476724  0.98395167     0.02100
C859        C  0.62620463  0.64665397  0.01622522    -0.10100
C860        C  0.65829646  0.67755597  0.01503318     0.04600
C861        C  0.68152357  0.67620027  0.98081587    -0.09500
H862        H  0.63363114  0.58857205  0.92496171     0.10100
H863        H  0.60794682  0.64743620  0.04224529     0.07700
H864        H  0.70616783  0.70016135  0.97945433     0.07500
C865        C  0.99205832  0.78490306  0.94489250     0.04600
C866        C  0.51740142  0.77843642  0.98658328    -0.11600
C867        C  0.53768165  0.80818143  0.01982724     0.02100
C868        C  0.53414150  0.84360592  0.02208406    -0.10100
C869        C  0.51039252  0.84906748  0.99280214     0.04600
C870        C  0.98927319  0.82039500  0.95092522    -0.09500
H871        H  0.51998149  0.75108213  0.98432388     0.10100
H872        H  0.55006378  0.86708356  0.04651165     0.07700
H873        H  0.97545228  0.82899238  0.92391517     0.07500
Zr874      Zr  0.67149260  0.82868262  0.16282460     2.17500
O875        O  0.66874703  0.85566056  0.08214249    -0.49900
O876        O  0.66822929  0.76931277  0.12104781    -0.73100
O877        O  0.72627461  0.86251233  0.12374670    -0.79900
O878        O  0.58010124  0.80894690  0.18253028    -0.81600
O879        O  0.76627855  0.87463349  0.18285692    -0.77300
O880        O  0.61824920  0.81768524  0.12238859    -0.88900
O881        O  0.66108745  0.72345554  0.17941066    -0.74900
O882        O  0.70271677  0.80268884  0.21106556    -0.84300
O883        O  0.63209506  0.77702627  0.21062724    -0.84000
O884        O  0.70814290  0.88289860  0.21375486    -0.70800
O885        O  0.64345337  0.85831974  0.21328546    -0.82900
Zr886      Zr  0.67230638  0.83339585  0.36116760     2.26400
Zr887      Zr  0.73896413  0.85598546  0.26231444     2.06300
Zr888      Zr  0.60466038  0.80628615  0.26169622     2.10000
Zr889      Zr  0.66325115  0.75195159  0.25972444     1.78800
O890        O  0.56875670  0.83999179  0.27401760    -0.91700
O891        O  0.70582803  0.72680510  0.26382823    -0.39500
O892        O  0.63495058  0.77978088  0.31116742    -0.76200
O893        O  0.70040448  0.80392596  0.31096742    -0.94900
O894        O  0.71158366  0.88507377  0.31372860    -0.88200
O895        O  0.64064977  0.85888957  0.31334051    -0.91000
C896        C  0.66356743  0.73473455  0.13468341     1.02700
C897        C  0.58902965  0.81240280  0.13726103     1.15700
C898        C  0.75696094  0.87601507  0.13821179     1.06500
O899        O  0.77474803  0.82172385  0.25384696    -0.93200
O900        O  0.76427617  0.85678008  0.34268003    -0.88900
O901        O  0.72547023  0.84784830  0.40193257    -0.82100
C902        C  0.75485817  0.85358083  0.38790044     1.13100
O903        O  0.69045081  0.95681899  0.19900214    -0.95100
Zr904      Zr  0.67994982  0.91044818  0.26622687     1.88900
O905        O  0.67926102  0.89291314  0.40537350    -0.71800
O906        O  0.78496995  0.92047582  0.27381059    -0.51000
O907        O  0.73275208  0.96818108  0.27539683    -0.95700
O908        O  0.63624998  0.93346799  0.25679919    -0.52900
O909        O  0.67893561  0.93682411  0.34836207    -0.72300
C910        C  0.67959267  0.92598771  0.39311703     1.00000
O911        O  0.67010901  0.79239957  0.43200044    -0.61100
O912        O  0.55788607  0.74220737  0.25119647    -0.55900
O913        O  0.61817547  0.80879739  0.40187994    -0.92600
O914        O  0.57848684  0.78594151  0.34128543    -0.91000
O915        O  0.60973093  0.69479007  0.25777768    -0.91400
O916        O  0.65713796  0.70837176  0.32875056    -0.90200
C917        C  0.58775516  0.79078971  0.38675754     1.18900
H918        H  0.61628962  0.75684642  0.18954908     0.34800
H919        H  0.71207306  0.79286146  0.33162382     0.45700
H920        H  0.62764827  0.86809782  0.33400296     0.39200
H921        H  0.72295277  0.90424030  0.19387640     0.35700
H922        H  0.69436811  0.69919832  0.25243169     0.27500
H923        H  0.80530715  0.91639665  0.26723464     0.33400
H924        H  0.74461941  0.96211724  0.30288077     0.39300
H925        H  0.61400192  0.67435268  0.23987904     0.33800
H926        H  0.53790500  0.74777896  0.24985189     0.32700
H927        H  0.54576925  0.81929671  0.27012253     0.34300
H928        H  0.62362536  0.92646958  0.28796015     0.33300
H929        H  0.64930672  0.71967689  0.35627519     0.37300
H930        H  0.64778353  0.77011449  0.43081049     0.30000
H931        H  0.67888803  0.84354528  0.05877714     0.34300
H932        H  0.69129995  0.98120149  0.21434321     0.37100
H933        H  0.55981384  0.73347963  0.21730098     0.29700
H934        H  0.68534096  0.78004039  0.42389151     0.42600
H935        H  0.77029207  0.81041869  0.22005966     0.32700
H936        H  0.72143454  0.74023949  0.23695183     0.40300
H937        H  0.62075269  0.91573286  0.23168058     0.32100
H938        H  0.78319164  0.93615591  0.24566160     0.32200
H939        H  0.68443517  0.88373998  0.08384155     0.32500
C940        C  0.98116394  0.99070847  0.49950571     0.81700
N941        N  0.96669176  0.52103399  0.48429025    -0.76700
C942        C  0.99565340  0.55374067  0.48863782     0.84100
N943        N  0.53682562  0.55496550  0.50298923    -0.76600
C944        C  0.53471196  0.51804025  0.50115540     0.84200
N945        N  0.00973904  0.98566559  0.49529658    -0.78300
C946        C  0.68378088  0.54209126  0.52792636     0.04600
C947        C  0.69023019  0.51921891  0.49156962    -0.11600
C948        C  0.66274271  0.00283186  0.46689887     0.02100
C949        C  0.63046783  0.00108117  0.46671195    -0.10100
C950        C  0.62561817  0.51501975  0.49998287     0.04600
C951        C  0.65104061  0.53955083  0.53189084    -0.09500
H952        H  0.71519726  0.52091945  0.48754891     0.10100
H953        H  0.61328090  0.98593174  0.43686820     0.07700
H954        H  0.64512754  0.55714825  0.55849604     0.07500
C955        C  0.54284638  0.74167566  0.50313643     0.04600
C956        C  0.53991145  0.70360960  0.49382500    -0.11600
C957        C  0.51738104  0.67202022  0.52015289     0.02100
C958        C  0.97782049  0.66992958  0.52703682    -0.10100
C959        C  0.97944889  0.70779827  0.53298450     0.04600
C960        C  0.00116429  0.73835430  0.50306119    -0.09500
H961        H  0.55515539  0.69861152  0.46580528     0.10100
H962        H  0.96172415  0.64634123  0.55042681     0.07700
H963        H  0.00257394  0.76767523  0.50720636     0.07500
C964        C  0.83447857  0.86353423  0.45656088     0.04600
C965        C  0.82583390  0.83646812  0.49553084    -0.11600
C966        C  0.84935057  0.84034817  0.53283486     0.02100
C967        C  0.88108148  0.87159874  0.53136778    -0.10100
C968        C  0.88990242  0.89800798  0.49237042     0.04600
C969        C  0.86682102  0.89366874  0.45468774    -0.09500
H970        H  0.80103868  0.81279804  0.49699400     0.10100
H971        H  0.89909243  0.87518091  0.56054497     0.07700
H972        H  0.87367370  0.91445567  0.42469901     0.07500
C973        C  0.99599426  0.62375731  0.48770312    -0.11800
C974        C  0.99543821  0.59155532  0.48681697    -0.13400
C975        C  0.56501073  0.51273304  0.50298272    -0.11800
C976        C  0.59236950  0.51291448  0.50303385    -0.13400
C977        C  0.92235690  0.93038538  0.49230415    -0.11800
C978        C  0.94936518  0.95776183  0.49468619    -0.13400
C979        C  0.56120895  0.77126287  0.42301407    -0.15000
C980        C  0.56603093  0.77365556  0.47218893    -0.30200
H981        H  0.53743838  0.74996632  0.40835568     0.14000
H982        H  0.58915276  0.79486663  0.48851931     0.14600
C983        C  0.67192008  0.98313661  0.42601680    -0.15000
C984        C  0.67939208  0.95245697  0.43382231    -0.30200
H985        H  0.66666547  0.98950758  0.38871770     0.14000
H986        H  0.68188188  0.94420314  0.47147666     0.14600
C987        C  0.81038269  0.86112831  0.41716379    -0.15000
C988        C  0.77889146  0.85530814  0.42701665    -0.30200
H989        H  0.81954142  0.86707716  0.37963784     0.14000
H990        H  0.77044794  0.85156481  0.46499499     0.14600
C991        C  0.56237676  0.80281946  0.05309050    -0.15000
C992        C  0.56374508  0.81248144  0.10126367    -0.30200
H993        H  0.57906766  0.79099749  0.03832166     0.14000
H994        H  0.54476579  0.82093133  0.11565056     0.14600
C995        C  0.65882650  0.70417939  0.09751350    -0.15000
C996        C  0.66734348  0.71095172  0.04997013    -0.30200
H997        H  0.64736790  0.67405135  0.11020985     0.14000
H998        H  0.68129718  0.74065363  0.03700066     0.14600
C999        C  0.78410919  0.89664740  0.10272344    -0.15000
C1000       C  0.77937557  0.91199975  0.06003332    -0.30200
H1001       H  0.80922650  0.90344712  0.11563842     0.14000
H1002       H  0.75404009  0.90669775  0.04945871     0.14600
C1003       C  0.55896922  0.55448288  0.99202853    -0.11800
C1004       C  0.58522769  0.58248971  0.98734747    -0.13400
C1005       C  0.50392603  0.91566387  0.99382841    -0.11800
C1006       C  0.50721783  0.88550598  0.99458138    -0.13400
C1007       C  0.92865160  0.98203942  0.00968464    -0.11800
C1008       C  0.90030881  0.97899753  0.01103824    -0.13400
C1009       C  0.95865805  0.71440913  0.57158644    -0.15000
C1010       C  0.92628330  0.68945731  0.57508795    -0.30200
H1011       H  0.97017169  0.73805782  0.59828668     0.14000
H1012       H  0.91493124  0.66805325  0.54562831     0.14600
C1013       C  0.82851042  0.55705731  0.93043964    -0.15000
C1014       C  0.81381596  0.51754054  0.93000208    -0.30200
H1015       H  0.84460126  0.57244629  0.96134379     0.14000
H1016       H  0.79615667  0.50168944  0.90090844     0.14600
C1017       C  0.94452217  0.72964711  0.90876099    -0.15000
C1018       C  0.97439956  0.75969204  0.90212568    -0.30200
H1019       H  0.93652385  0.72094942  0.94637605     0.14000
H1020       H  0.98145608  0.77146229  0.86536056     0.14600
C1021       C  0.71207480  0.56915493  0.55950195    -0.15000
C1022       C  0.70819380  0.58552397  0.60204012    -0.30200
H1023       H  0.73717357  0.57428355  0.54843398     0.14000
H1024       H  0.68344046  0.57885213  0.61581520     0.14600
C1025       C  0.82887794  0.77421874  0.56991641    -0.15000
C1026       C  0.84154871  0.81345865  0.57512942    -0.30200
H1027       H  0.82216960  0.76096441  0.53341340     0.14000
H1028       H  0.85072184  0.82674456  0.61108217     0.14600
C1029       C  0.72882596  0.65303723  0.91977774    -0.15000
C1030       C  0.69604727  0.64156733  0.91098714    -0.30200
H1031       H  0.73927702  0.66421784  0.95602233     0.14000
H1032       H  0.68536830  0.62826039  0.87560966     0.14600
loop_ 
_geom_bond_atom_site_label_1 
_geom_bond_atom_site_label_2 
_geom_bond_distance 
_geom_bond_site_symmetry_2 
_ccdc_geom_bond_type 
Zr1           O2   2.441       .  S
Zr1           O3   2.435       .  S
Zr1           O4   2.446       .  S
Zr1           O7   2.428       .  S
Zr1           O9   2.381       .  S
Zr1          O10   2.384       .  S
Zr1          O11   2.402       .  S
Zr1          O12   2.407       .  S
O2           H58   0.990       .  S
O2           H66   0.991       .  S
O3           C23   1.283       .  A
O4           C25   1.287       .  A
O5          Zr15   2.459       .  S
O5           C24   1.289       .  A
O6          Zr14   2.424       .  S
O6           C25   1.282       .  A
O7           C24   1.283       .  A
O8          Zr16   2.419       .  S
O8           C23   1.282       .  A
O9          Zr14   2.397       .  S
O9          Zr16   2.380       .  S
O10         Zr15   2.392       .  S
O10         Zr16   2.369       .  S
O10          H45   0.966       .  S
O11         Zr14   2.403       .  S
O11         Zr31   2.387       .  S
O11          H48   0.965       .  S
O12         Zr15   2.400       .  S
O12         Zr31   2.403       .  S
Zr13         O38   2.442       .  S
Zr13         O32   2.451       .  S
Zr13         O40   2.417       .  S
Zr13         O28   2.447       .  S
Zr13         O19   2.408       .  S
Zr13         O20   2.408       .  S
Zr13         O21   2.372       .  S
Zr13         O22   2.387       .  S
Zr14         O33   2.433       .  S
Zr14         O26   2.436       .  S
Zr14         O27   2.436       .  S
Zr14         O20   2.392       .  S
Zr14         O21   2.396       .  S
Zr15         O17   2.435       .  S
Zr15         O39   2.437       .  S
Zr15         O41   2.443       .  S
Zr15         O19   2.398       .  S
Zr15         O22   2.404       .  S
Zr16         O42   2.437       .  S
Zr16         O43   2.436       .  S
Zr16         O18   2.436       .  S
Zr16         O19   2.391       .  S
Zr16         O20   2.392       .  S
O17          H54   0.990       .  S
O18          H49   0.990       .  S
O18          H63   0.990       .  S
O20          H46   0.965       .  S
O21         Zr31   2.383       .  S
O22         Zr31   2.383       .  S
O22          H47   0.966       .  S
C23         C251   1.477       .  S
C24         C236   1.480       .  S
C25         C248   1.476       .  S
O26          H62   0.990       .  S
O27          C29   1.286       .  A
O28          C29   1.285       .  A
C29         C255   1.483       .  S
O30         Zr31   2.440       .  S
O30          H59   0.990       .  S
Zr31         O34   2.437       .  S
Zr31         O35   2.440       .  S
Zr31         O36   2.420       .  S
O32          C37   1.285       .  A
O33          H50   0.990       .  S
O33          H65   0.990       .  S
O34          H51   0.990       .  S
O35          H55   0.990       .  S
O35          H64   0.989       .  S
O36          C37   1.280       .  A
C37         C239   1.479       .  S
O38          H57   0.990       .  S
O38          H61   0.991       .  S
O39          H53   0.990       .  S
O39          H60   0.990       .  S
O40          C44   1.279       .  A
O41          C44   1.285       .  A
O42          H52   0.990       .  S
O43          H56   0.990       .  S
C44         C243   1.468       .  S
C67         C229   1.441       .  S
C67         N584   1.362   1_456  A
C67         N330   1.357   1_545  A
N68         C583   1.358       .  A
N68         C327   1.358   1_545  A
C69         C233   1.430       .  S
C69          N70   1.355       .  A
C69         N326   1.357       .  A
N70         C587   1.354       .  A
C71         C231   1.431       .  S
C71          N72   1.354   1_654  A
C71         N586   1.356       .  A
N72         C325   1.355       .  A
C73         C226   1.484       .  S
C73          C74   1.414       .  A
C73          C78   1.402       .  A
C74         C333   1.409   1_554  A
C74          H79   1.083       .  S
C75         C240   1.481   1_565  S
C75          C76   1.403       .  A
C75         C332   1.410       .  A
C76         C335   1.396       .  A
C76          H80   1.085   1_565  S
C77         C234   1.435       .  S
C77          C78   1.396       .  A
C77         C334   1.395   1_554  A
C78          H81   1.085       .  S
C82         C256   1.487       .  S
C82          C83   1.406       .  A
C82          C87   1.411       .  A
C83          C84   1.401       .  A
C83          H88   1.084       .  S
C84         C230   1.445       .  S
C84          C85   1.398   1_556  A
C85          C86   1.407       .  A
C85          H89   1.084       .  S
C86         C222   1.483       .  S
C86          C87   1.405   1_554  A
C87          H90   1.083       .  S
C91         C244   1.482       .  S
C91          C96   1.406       .  A
C91         C608   1.406       .  A
C92          C93   1.411   1_556  A
C92         C607   1.409   1_455  A
C92          H97   1.083       .  S
C93         C217   1.482       .  S
C93          C94   1.406       .  A
C94          C95   1.396       .  A
C94          H98   1.084       .  S
C95         C232   1.436       .  S
C95         C612   1.393   1_454  A
C96         C611   1.394   1_556  A
C96          H99   1.085       .  S
Zr100       O101   2.442       .  S
Zr100       O102   2.460       .  S
Zr100       O103   2.442       .  S
Zr100       O106   2.433       .  S
Zr100       O108   2.382       .  S
Zr100       O109   2.381       .  S
Zr100       O110   2.416       .  S
Zr100       O111   2.408       .  S
O101        H157   0.990       .  S
O101        H165   0.991       .  S
O102        C122   1.288       .  A
O103        C124   1.283       .  A
O104       Zr114   2.434       .  S
O104        C123   1.284       .  A
O105       Zr113   2.442       .  S
O105        C124   1.287       .  A
O106        C123   1.284       .  A
O107       Zr115   2.402       .  S
O107        C122   1.277       .  A
O108       Zr113   2.395       .  S
O108       Zr115   2.387       .  S
O109       Zr114   2.382       .  S
O109       Zr115   2.380       .  S
O109        H144   0.966       .  S
O110       Zr113   2.396       .  S
O110       Zr130   2.396       .  S
O110        H147   0.965       .  S
O111       Zr114   2.382       .  S
O111       Zr130   2.402       .  S
Zr112       O137   2.447       .  S
Zr112       O131   2.433       .  S
Zr112       O139   2.468       .  S
Zr112       O127   2.458       .  S
Zr112       O118   2.403       .  S
Zr112       O119   2.408       .  S
Zr112       O120   2.387       .  S
Zr112       O121   2.389       .  S
Zr113       O132   2.438       .  S
Zr113       O125   2.436       .  S
Zr113       O126   2.425       .  S
Zr113       O119   2.399       .  S
Zr113       O120   2.395       .  S
Zr114       O116   2.432       .  S
Zr114       O138   2.435       .  S
Zr114       O140   2.413       .  S
Zr114       O118   2.397       .  S
Zr114       O121   2.387       .  S
Zr115       O141   2.434       .  S
Zr115       O142   2.437       .  S
Zr115       O117   2.439       .  S
Zr115       O118   2.390       .  S
Zr115       O119   2.384       .  S
O116        H153   0.990       .  S
O117        H148   0.990       .  S
O117        H162   0.990       .  S
O119        H145   0.966       .  S
O120       Zr130   2.372       .  S
O121       Zr130   2.370       .  S
O121        H146   0.966       .  S
C122        C221   1.473       .  S
C123        C218   1.479       .  S
C124        C225   1.484       .  S
O125        H161   0.990       .  S
O126        C128   1.283       .  A
O127        C128   1.290       .  A
C128        C214   1.480       .  S
O129       Zr130   2.441       .  S
O129        H158   0.991       .  S
Zr130       O133   2.438       .  S
Zr130       O134   2.439       .  S
Zr130       O135   2.439       .  S
O131        C136   1.284       .  A
O132        H149   0.990       .  S
O132        H164   0.990       .  S
O133        H150   0.990       .  S
O134        H154   0.990       .  S
O134        H163   0.990       .  S
O135        C136   1.287       .  A
C136        C210   1.485       .  S
O137        H156   0.990       .  S
O137        H160   0.990       .  S
O138        H152   0.990       .  S
O138        H159   0.990       .  S
O139        C143   1.290       .  A
O140        C143   1.281       .  A
O141        H151   0.990       .  S
O142        H155   0.990       .  S
C143        C205   1.478       .  S
C166        C204   1.440       .  S
C166        N171   1.362       .  A
C166        N425   1.357       .  A
N167        C168   1.355       .  A
N167        C424   1.356   1_545  A
C168        C200   1.428       .  S
C168        N685   1.353       .  A
N169        C170   1.352       .  A
N169        C684   1.351       .  A
C170        C201   1.427       .  S
C170        N945   1.357   1_545  A
N171        C944   1.361       .  A
C172        C247   1.491       .  S
C172        C173   1.409       .  A
C172        C177   1.411       .  A
C173        C432   1.403   1_545  A
C173        H178   1.084       .  S
C174        C209   1.482       .  S
C174        C175   1.399       .  A
C174        C431   1.412       .  A
C175        C434   1.394       .  A
C175        H179   1.085       .  S
C176        C202   1.433       .  S
C176        C177   1.399       .  A
C176        C433   1.391   1_545  A
C177        H180   1.081       .  S
C181        C206   1.488       .  S
C181        C182   1.406       .  A
C181        C702   1.414       .  A
C182        C183   1.393       .  A
C182        H187   1.085       .  S
C183        C715   1.434       .  S
C183        C700   1.390       .  A
C184        C185   1.404       .  A
C184        C699   1.392       .  A
C184        H188   1.085       .  S
C185        C235   1.489       .  S
C185        C186   1.416       .  A
C186        C697   1.416       .  A
C186        H189   1.083       .  S
C190        C213   1.495       .  S
C190        C191   1.409       .  A
C190        C195   1.415       .  A
C191        C192   1.406       .  A
C191        H196   1.084       .  S
C192        C252   1.477       .  S
C192        C193   1.399       .  A
C193        C194   1.396       .  A
C193        H197   1.085       .  S
C194        C203   1.445       .  S
C194        C195   1.404       .  A
C195        H198   1.081       .  S
C199        C699   1.433       .  S
C199        C200   1.201       .  T
C201        C202   1.201       .  T
C203        C204   1.209       .  T
C205        C206   1.346       .  D
C205        H207   1.089       .  S
C206        H208   1.086       .  S
C209        C210   1.345       .  D
C209        H211   1.087       .  S
C210        H212   1.087       .  S
C213        C214   1.347       .  D
C213        H215   1.087       .  S
C214        H216   1.084       .  S
C217        C218   1.347       .  D
C217        H219   1.086       .  S
C218        H220   1.087       .  S
C221        C222   1.341       .  D
C221        H223   1.088       .  S
C222        H224   1.086       .  S
C225        C226   1.344       .  D
C225        H227   1.086       .  S
C226        H228   1.087       .  S
C229        C230   1.209       .  T
C231        C232   1.203   1_655  T
C233        C234   1.203       .  T
C235        C236   1.348       .  D
C235        H237   1.086       .  S
C236        H238   1.088       .  S
C239        C240   1.347       .  D
C239        H241   1.087       .  S
C240        H242   1.086   1_545  S
C243        C244   1.341       .  D
C243        H245   1.088       .  S
C244        H246   1.086       .  S
C247        C248   1.348       .  D
C247        H249   1.087       .  S
C248        H250   1.083       .  S
C251        C252   1.343       .  D
C251        H253   1.087       .  S
C252        H254   1.087       .  S
C255        C256   1.347       .  D
C255        H257   1.086       .  S
C256        H258   1.087       .  S
Zr259       O260   2.441       .  S
Zr259       O261   2.447       .  S
Zr259       O262   2.442       .  S
Zr259       O265   2.428       .  S
Zr259       O267   2.379       .  S
Zr259       O268   2.381       .  S
Zr259       O269   2.407       .  S
Zr259       O270   2.409       .  S
O260        H316   0.990       .  S
O260        H324   0.990       .  S
O261        C281   1.285       .  A
O262        C283   1.285       .  A
O263       Zr273   2.437       .  S
O263        C282   1.285       .  A
O264       Zr272   2.457       .  S
O264        C283   1.290       .  A
O265        C282   1.283       .  A
O266       Zr274   2.425       .  S
O266        C281   1.283       .  A
O267       Zr272   2.400       .  S
O267       Zr274   2.383       .  S
O268       Zr273   2.398       .  S
O268       Zr274   2.366       .  S
O268        H303   0.966       .  S
O269       Zr272   2.401       .  S
O269       Zr289   2.390       .  S
O269        H306   0.965       .  S
O270       Zr273   2.395       .  S
O270       Zr289   2.398       .  S
Zr271       O296   2.442       .  S
Zr271       O290   2.445       .  S
Zr271       O298   2.442       .  S
Zr271       O286   2.440       .  S
Zr271       O277   2.407       .  S
Zr271       O278   2.409       .  S
Zr271       O279   2.381       .  S
Zr271       O280   2.381       .  S
Zr272       O291   2.434       .  S
Zr272       O284   2.434       .  S
Zr272       O285   2.449       .  S
Zr272       O278   2.403       .  S
Zr272       O279   2.397       .  S
Zr273       O275   2.435       .  S
Zr273       O297   2.436       .  S
Zr273       O299   2.439       .  S
Zr273       O277   2.399       .  S
Zr273       O280   2.394       .  S
Zr274       O300   2.435       .  S
Zr274       O301   2.434       .  S
Zr274       O276   2.436       .  S
Zr274       O277   2.401       .  S
Zr274       O278   2.384       .  S
O275        H312   0.990       .  S
O276        H307   0.990       .  S
O276        H321   0.990       .  S
O278        H304   0.964       .  S
O279       Zr289   2.382       .  S
O280       Zr289   2.379       .  S
O280        H305   0.966       .  S
C281        C509   1.485       .  S
C282        C494   1.472       .  S
C283        C506   1.487       .  S
O284        H320   0.990       .  S
O285        C287   1.289       .  A
O286        C287   1.285       .  A
C287        C513   1.483       .  S
O288       Zr289   2.440       .  S
O288        H317   0.990       .  S
Zr289       O292   2.436       .  S
Zr289       O293   2.442       .  S
Zr289       O294   2.419       .  S
O290        C295   1.285       .  A
O291        H308   0.990       .  S
O291        H323   0.990       .  S
O292        H309   0.990       .  S
O293        H313   0.990       .  S
O293        H322   0.990       .  S
O294        C295   1.281       .  A
C295        C497   1.481       .  S
O296        H315   0.990       .  S
O296        H319   0.990       .  S
O297        H311   0.990       .  S
O297        H318   0.990       .  S
O298        C302   1.285       .  A
O299        C302   1.285       .  A
O300        H310   0.990       .  S
O301        H314   0.990       .  S
C302        C501   1.480       .  S
C325        C487   1.431       .  S
C325        N842   1.357   1_455  A
N326        C841   1.357   1_554  A
C327        C491   1.432       .  S
C327        N328   1.356       .  A
N328        C845   1.355       .  A
C329        C489   1.434   1_554  S
C329        N844   1.355       .  A
C329        N330   1.356   1_654  A
C331        C484   1.488       .  S
C331        C332   1.415   1_554  A
C331        C336   1.402       .  A
C332        H337   1.083       .  S
C333        C498   1.474       .  S
C333        C334   1.400       .  A
C334        H338   1.085       .  S
C335        C492   1.437       .  S
C335        C336   1.397   1_556  A
C336        H339   1.085       .  S
C340        C514   1.486       .  S
C340        C341   1.404       .  A
C340        C345   1.412       .  A
C341        C342   1.399       .  A
C341        H346   1.084       .  S
C342        C488   1.437       .  S
C342        C343   1.394       .  A
C343        C344   1.404       .  A
C343        H347   1.085   1_556  S
C344        C480   1.482   1_556  S
C344        C345   1.406       .  A
C345        H348   1.083       .  S
C349        C502   1.488       .  S
C349        C866   1.413       .  A
C349        C354   1.404       .  A
C350        C865   1.413   1_455  A
C350        C351   1.415   1_556  A
C350        H355   1.083       .  S
C351        C475   1.490       .  S
C351        C352   1.408       .  A
C352        C353   1.398   1_554  A
C352        H356   1.084       .  S
C353        C490   1.439       .  S
C353        C870   1.396   1_455  A
C354        C869   1.393       .  A
C354        H357   1.085       .  S
Zr358       O359   2.440       .  S
Zr358       O360   2.447       .  S
Zr358       O361   2.439       .  S
Zr358       O364   2.430       .  S
Zr358       O366   2.380       .  S
Zr358       O367   2.383       .  S
Zr358       O368   2.411       .  S
Zr358       O369   2.411       .  S
O359        H415   0.990       .  S
O359        H423   0.991       .  S
O360        C380   1.285       .  A
O361        C382   1.283       .  A
O362       Zr372   2.448       .  S
O362        C381   1.287       .  A
O363       Zr371   2.447       .  S
O363        C382   1.287       .  A
O364        C381   1.284       .  A
O365       Zr373   2.406       .  S
O365        C380   1.278       .  A
O366       Zr371   2.400       .  S
O366       Zr373   2.385       .  S
O367       Zr372   2.396       .  S
O367       Zr373   2.378       .  S
O367        H402   0.966       .  S
O368       Zr371   2.402       .  S
O368       Zr388   2.386       .  S
O368        H405   0.965       .  S
O369       Zr372   2.392       .  S
O369       Zr388   2.399       .  S
Zr370       O395   2.447       .  S
Zr370       O389   2.432       .  S
Zr370       O397   2.440       .  S
Zr370       O385   2.444       .  S
Zr370       O376   2.401       .  S
Zr370       O377   2.402       .  S
Zr370       O378   2.381       .  S
Zr370       O379   2.387       .  S
Zr371       O390   2.437       .  S
Zr371       O383   2.435       .  S
Zr371       O384   2.441       .  S
Zr371       O377   2.400       .  S
Zr371       O378   2.392       .  S
Zr372       O374   2.435       .  S
Zr372       O396   2.436       .  S
Zr372       O398   2.444       .  S
Zr372       O376   2.401       .  S
Zr372       O379   2.389       .  S
Zr373       O399   2.436       .  S
Zr373       O400   2.436       .  S
Zr373       O375   2.439       .  S
Zr373       O376   2.394       .  S
Zr373       O377   2.390       .  S
O374        H411   0.990       .  S
O375        H406   0.990       .  S
O375        H420   0.990       .  S
O377        H403   0.966       .  S
O378       Zr388   2.371       .  S
O379       Zr388   2.370       .  S
O379        H404   0.966       .  S
C380        C479   1.471       .  S
C381        C476   1.483       .  S
C382        C483   1.484       .  S
O383        H419   0.990       .  S
O384        C386   1.286       .  A
O385        C386   1.287       .  A
C386        C472   1.483       .  S
O387       Zr388   2.439       .  S
O387        H416   0.991       .  S
Zr388       O391   2.437       .  S
Zr388       O392   2.441       .  S
Zr388       O393   2.417       .  S
O389        C394   1.283       .  A
O390        H407   0.990       .  S
O390        H422   0.990       .  S
O391        H408   0.990       .  S
O392        H412   0.990       .  S
O392        H421   0.990       .  S
O393        C394   1.282       .  A
C394        C468   1.477       .  S
O395        H414   0.990       .  S
O395        H418   0.990       .  S
O396        H410   0.990       .  S
O396        H417   0.991       .  S
O397        C401   1.285       .  A
O398        C401   1.287       .  A
O399        H409   0.990       .  S
O400        H413   0.990       .  S
C401        C463   1.479       .  S
C424        C462   1.437       .  S
C424        N429   1.362       .  A
N425        C426   1.355       .  A
C426        C458   1.427       .  S
C426        N943   1.352       .  A
N427        C942   1.354   1_455  A
N427        C428   1.355       .  A
C428        C459   1.433       .  S
C428        N687   1.359   1_455  A
N429        C686   1.361   1_565  A
C430        C505   1.492       .  S
C430        C431   1.417       .  A
C430        C435   1.405       .  A
C431        H436   1.083       .  S
C432        C467   1.467       .  S
C432        C433   1.396       .  A
C433        H437   1.085       .  S
C434        C460   1.438       .  S
C434        C435   1.399       .  A
C435        H438   1.084       .  S
C439        C464   1.482       .  S
C439        C440   1.404       .  A
C439        C960   1.412       .  A
C440        C441   1.393   1_455  A
C440        H445   1.085       .  S
C441        C973   1.433       .  S
C441        C958   1.392       .  A
C442        C957   1.391       .  A
C442        C443   1.403       .  A
C442        H446   1.085       .  S
C443        C493   1.483       .  S
C443        C444   1.412       .  A
C444        C955   1.411       .  A
C444        H447   1.083       .  S
C448        C471   1.494       .  S
C448        C449   1.413       .  A
C448        C453   1.412       .  A
C449        C450   1.408       .  A
C449        H454   1.084       .  S
C450        C510   1.480       .  S
C450        C451   1.399       .  A
C451        C452   1.396       .  A
C451        H455   1.085       .  S
C452        C461   1.442       .  S
C452        C453   1.402       .  A
C453        H456   1.082       .  S
C457        C957   1.432       .  S
C457        C458   1.201       .  T
C459        C460   1.204       .  T
C461        C462   1.207       .  T
C463        C464   1.346       .  D
C463        H465   1.088       .  S
C464        H466   1.086       .  S
C467        C468   1.343       .  D
C467        H469   1.087       .  S
C468        H470   1.087       .  S
C471        C472   1.350       .  D
C471        H473   1.087       .  S
C472        H474   1.085       .  S
C475        C476   1.351       .  D
C475        H477   1.087       .  S
C476        H478   1.087       .  S
C479        C480   1.343       .  D
C479        H481   1.088       .  S
C480        H482   1.086       .  S
C483        C484   1.344       .  D
C483        H485   1.086       .  S
C484        H486   1.087       .  S
C487        C488   1.204       .  T
C489        C490   1.205   1_655  T
C491        C492   1.204       .  T
C493        C494   1.346       .  D
C493        H495   1.086       .  S
C494        H496   1.088       .  S
C497        C498   1.345       .  D
C497        H499   1.087       .  S
C498        H500   1.086       .  S
C501        C502   1.349       .  D
C501        H503   1.088       .  S
C502        H504   1.086       .  S
C505        C506   1.346       .  D
C505        H507   1.087       .  S
C506        H508   1.086       .  S
C509        C510   1.346       .  D
C509        H511   1.087       .  S
C510        H512   1.087       .  S
C513        C514   1.346       .  D
C513        H515   1.087       .  S
C514        H516   1.087       .  S
Zr517       O518   2.439       .  S
Zr517       O519   2.440       .  S
Zr517       O520   2.442       .  S
Zr517       O523   2.436       .  S
Zr517       O525   2.381       .  S
Zr517       O526   2.385       .  S
Zr517       O527   2.405       .  S
Zr517       O528   2.405       .  S
O518        H574   0.990       .  S
O518        H582   0.990       .  S
O519        C539   1.284       .  A
O520        C541   1.286       .  A
O521       Zr531   2.446       .  S
O521        C540   1.287       .  A
O522       Zr530   2.452       .  S
O522        C541   1.289       .  A
O523        C540   1.286       .  A
O524       Zr532   2.424       .  S
O524        C539   1.283       .  A
O525       Zr530   2.398       .  S
O525       Zr532   2.380       .  S
O526       Zr531   2.395       .  S
O526       Zr532   2.364       .  S
O526        H561   0.966       .  S
O527       Zr530   2.398       .  S
O527       Zr547   2.385       .  S
O527        H564   0.965       .  S
O528       Zr531   2.397       .  S
O528       Zr547   2.400       .  S
Zr529       O554   2.440       .  S
Zr529       O548   2.453       .  S
Zr529       O556   2.428       .  S
Zr529       O544   2.437       .  S
Zr529       O535   2.408       .  S
Zr529       O536   2.407       .  S
Zr529       O537   2.379       .  S
Zr529       O538   2.378       .  S
Zr530       O549   2.434       .  S
Zr530       O542   2.435       .  S
Zr530       O543   2.447       .  S
Zr530       O536   2.401       .  S
Zr530       O537   2.397       .  S
Zr531       O533   2.435       .  S
Zr531       O555   2.437       .  S
Zr531       O557   2.443       .  S
Zr531       O535   2.396       .  S
Zr531       O538   2.395       .  S
Zr532       O558   2.436       .  S
Zr532       O559   2.436       .  S
Zr532       O534   2.434       .  S
Zr532       O535   2.398       .  S
Zr532       O536   2.383       .  S
O533        H570   0.990       .  S
O534        H565   0.990       .  S
O534        H579   0.990       .  S
O536        H562   0.964       .  S
O537       Zr547   2.383       .  S
O538       Zr547   2.378       .  S
O538        H563   0.965       .  S
C539        C767   1.483       .  S
C540        C752   1.477       .  S
C541        C764   1.485       .  S
O542        H578   0.990       .  S
O543        C545   1.288       .  A
O544        C545   1.284       .  A
C545        C771   1.482       .  S
O546       Zr547   2.440       .  S
O546        H575   0.990       .  S
Zr547       O550   2.437       .  S
Zr547       O551   2.439       .  S
Zr547       O552   2.414       .  S
O548        C553   1.286       .  A
O549        H566   0.990       .  S
O549        H581   0.990       .  S
O550        H567   0.990       .  S
O551        H571   0.990       .  S
O551        H580   0.989       .  S
O552        C553   1.280       .  A
C553        C755   1.481       .  S
O554        H573   0.990       .  S
O554        H577   0.990       .  S
O555        H569   0.990       .  S
O555        H576   0.990       .  S
O556        C560   1.282       .  A
O557        C560   1.286       .  A
O558        H568   0.990       .  S
O559        H572   0.990       .  S
C560        C759   1.475       .  S
C583        C745   1.433       .  S
C583        N846   1.355   1_545  A
N584        C843   1.362   1_545  A
C585        C749   1.433       .  S
C585        N842   1.358       .  A
C585        N586   1.357   1_556  A
C587        C747   1.430       .  S
C587        N588   1.355       .  A
N588        C841   1.356   1_554  A
C589        C742   1.485       .  S
C589        C590   1.415   1_554  A
C589        C594   1.402       .  A
C590        C849   1.411       .  A
C590        H595   1.083       .  S
C591        C756   1.478   1_565  S
C591        C848   1.405       .  A
C591        C592   1.400       .  A
C592        C851   1.398   1_556  A
C592        H596   1.085   1_565  S
C593        C750   1.438       .  S
C593        C850   1.396       .  A
C593        C594   1.396   1_556  A
C594        H597   1.085       .  S
C598        C772   1.486       .  S
C598        C599   1.402       .  A
C598        C603   1.415       .  A
C599        C600   1.397       .  A
C599        H604   1.085       .  S
C600        C746   1.438       .  S
C600        C601   1.396       .  A
C601        C602   1.406       .  A
C601        H605   1.084   1_556  S
C602        C738   1.491   1_556  S
C602        C603   1.410       .  A
C603        H606   1.083       .  S
C607        C760   1.485       .  S
C607        C612   1.404       .  A
C608        C609   1.407   1_556  A
C608        H613   1.084       .  S
C609        C733   1.477       .  S
C609        C610   1.405       .  A
C610        C611   1.394       .  A
C610        H614   1.085       .  S
C611        C748   1.435       .  S
C612        H615   1.085       .  S
Zr616       O617   2.442       .  S
Zr616       O618   2.451       .  S
Zr616       O619   2.439       .  S
Zr616       O622   2.420       .  S
Zr616       O624   2.379       .  S
Zr616       O625   2.386       .  S
Zr616       O626   2.407       .  S
Zr616       O627   2.413       .  S
O617        H673   0.990       .  S
O617        H681   0.991       .  S
O618        C638   1.287       .  A
O619        C640   1.284       .  A
O620       Zr630   2.440       .  S
O620        C639   1.286       .  A
O621       Zr629   2.442       .  S
O621        C640   1.287       .  A
O622        C639   1.283       .  A
O623       Zr631   2.419       .  S
O623        C638   1.281       .  A
O624       Zr629   2.397       .  S
O624       Zr631   2.383       .  S
O625       Zr630   2.394       .  S
O625       Zr631   2.370       .  S
O625        H660   0.966       .  S
O626       Zr629   2.394       .  S
O626       Zr646   2.384       .  S
O626        H663   0.965       .  S
O627       Zr630   2.397       .  S
O627       Zr646   2.397       .  S
Zr628       O653   2.447       .  S
Zr628       O647   2.440       .  S
Zr628       O655   2.442       .  S
Zr628       O643   2.440       .  S
Zr628       O634   2.399       .  S
Zr628       O635   2.404       .  S
Zr628       O636   2.383       .  S
Zr628       O637   2.384       .  S
Zr629       O648   2.436       .  S
Zr629       O641   2.434       .  S
Zr629       O642   2.437       .  S
Zr629       O635   2.397       .  S
Zr629       O636   2.391       .  S
Zr630       O632   2.435       .  S
Zr630       O654   2.435       .  S
Zr630       O656   2.454       .  S
Zr630       O634   2.392       .  S
Zr630       O637   2.387       .  S
Zr631       O657   2.435       .  S
Zr631       O658   2.435       .  S
Zr631       O633   2.435       .  S
Zr631       O634   2.395       .  S
Zr631       O635   2.390       .  S
O632        H669   0.990       .  S
O633        H664   0.990       .  S
O633        H678   0.990       .  S
O635        H661   0.966       .  S
O636       Zr646   2.374       .  S
O637       Zr646   2.372       .  S
O637        H662   0.966       .  S
C638        C737   1.477       .  S
C639        C734   1.473       .  S
C640        C741   1.484       .  S
O641        H677   0.990       .  S
O642        C644   1.286       .  A
O643        C644   1.287       .  A
C644        C730   1.480       .  S
O645       Zr646   2.441       .  S
O645        H674   0.990       .  S
Zr646       O649   2.438       .  S
Zr646       O650   2.437       .  S
Zr646       O651   2.419       .  S
O647        C652   1.285       .  A
O648        H665   0.990       .  S
O648        H680   0.990       .  S
O649        H666   0.990       .  S
O650        H670   0.990       .  S
O650        H679   0.990       .  S
O651        C652   1.283       .  A
C652        C726   1.480       .  S
O653        H672   0.990       .  S
O653        H676   0.990       .  S
O654        H668   0.990       .  S
O654        H675   0.990       .  S
O655        C659   1.286       .  A
O656        C659   1.288       .  A
O657        H667   0.990       .  S
O658        H671   0.990       .  S
C659        C721   1.484       .  S
C682        C720   1.434       .  S
C682        N941   1.356       .  A
C682        N687   1.359       .  A
N683        C940   1.358   1_545  A
N683        C684   1.356   1_655  A
C684        C716   1.428       .  S
N685        C686   1.354       .  A
C686        C717   1.437       .  S
C688        C763   1.492       .  S
C688        C689   1.415       .  A
C688        C693   1.407       .  A
C689        C948   1.409       .  A
C689        H694   1.083       .  S
C690        C725   1.473       .  S
C690        C947   1.405       .  A
C690        C691   1.397       .  A
C691        C950   1.393       .  A
C691        H695   1.085       .  S
C692        C718   1.442       .  S
C692        C949   1.396       .  A
C692        C693   1.402       .  A
C693        H696   1.084       .  S
C697        C722   1.490       .  S
C697        C698   1.404       .  A
C698        C699   1.393       .  A
C698        H703   1.085       .  S
C700        C701   1.403       .  A
C700        H704   1.085   1_455  S
C701        C751   1.486   1_455  S
C701        C702   1.414       .  A
C702        H705   1.083       .  S
C706        C729   1.491       .  S
C706        C707   1.412       .  A
C706        C711   1.411       .  A
C707        C708   1.406       .  A
C707        H712   1.084       .  S
C708        C768   1.475       .  S
C708        C709   1.397       .  A
C709        C710   1.395       .  A
C709        H713   1.085       .  S
C710        C719   1.439       .  S
C710        C711   1.401       .  A
C711        H714   1.082       .  S
C715        C716   1.202       .  T
C717        C718   1.207       .  T
C719        C720   1.205       .  T
C721        C722   1.349       .  D
C721        H723   1.088       .  S
C722        H724   1.086       .  S
C725        C726   1.345       .  D
C725        H727   1.087       .  S
C726        H728   1.087       .  S
C729        C730   1.349       .  D
C729        H731   1.087       .  S
C730        H732   1.085       .  S
C733        C734   1.346       .  D
C733        H735   1.086       .  S
C734        H736   1.087       .  S
C737        C738   1.347       .  D
C737        H739   1.087       .  S
C738        H740   1.086       .  S
C741        C742   1.345       .  D
C741        H743   1.086       .  S
C742        H744   1.087       .  S
C745        C746   1.204       .  T
C747        C748   1.202       .  T
C749        C750   1.204       .  T
C751        C752   1.349       .  D
C751        H753   1.086       .  S
C752        H754   1.088       .  S
C755        C756   1.347       .  D
C755        H757   1.087       .  S
C756        H758   1.086       .  S
C759        C760   1.346       .  D
C759        H761   1.088       .  S
C760        H762   1.086       .  S
C763        C764   1.347       .  D
C763        H765   1.087       .  S
C764        H766   1.086       .  S
C767        C768   1.345       .  D
C767        H769   1.087       .  S
C768        H770   1.087       .  S
C771        C772   1.344       .  D
C771        H773   1.087       .  S
C772        H774   1.087       .  S
Zr775       O776   2.442       .  S
Zr775       O777   2.445       .  S
Zr775       O778   2.452       .  S
Zr775       O781   2.416       .  S
Zr775       O783   2.378       .  S
Zr775       O784   2.387       .  S
Zr775       O785   2.401       .  S
Zr775       O786   2.413       .  S
O776        H832   0.990       .  S
O776        H840   0.990       .  S
O777        C797   1.285       .  A
O778        C799   1.287       .  A
O779       Zr789   2.456       .  S
O779        C798   1.289       .  A
O780       Zr788   2.430       .  S
O780        C799   1.284       .  A
O781        C798   1.282       .  A
O782       Zr790   2.420       .  S
O782        C797   1.283       .  A
O783       Zr788   2.394       .  S
O783       Zr790   2.382       .  S
O784       Zr789   2.393       .  S
O784       Zr790   2.365       .  S
O784        H819   0.966       .  S
O785       Zr788   2.394       .  S
O785       Zr805   2.389       .  S
O785        H822   0.965       .  S
O786       Zr789   2.403       .  S
O786       Zr805   2.403       .  S
Zr787       O812   2.447       .  S
Zr787       O806   2.447       .  S
Zr787       O814   2.425       .  S
Zr787       O802   2.442       .  S
Zr787       O793   2.409       .  S
Zr787       O794   2.403       .  S
Zr787       O795   2.375       .  S
Zr787       O796   2.382       .  S
Zr788       O807   2.435       .  S
Zr788       O800   2.435       .  S
Zr788       O801   2.421       .  S
Zr788       O794   2.394       .  S
Zr788       O795   2.389       .  S
Zr789       O791   2.435       .  S
Zr789       O813   2.435       .  S
Zr789       O815   2.466       .  S
Zr789       O793   2.394       .  S
Zr789       O796   2.392       .  S
Zr790       O816   2.437       .  S
Zr790       O817   2.436       .  S
Zr790       O792   2.436       .  S
Zr790       O793   2.400       .  S
Zr790       O794   2.385       .  S
O791        H828   0.990       .  S
O792        H823   0.990       .  S
O792        H837   0.990       .  S
O794        H820   0.965       .  S
O795       Zr805   2.374       .  S
O796       Zr805   2.375       .  S
O796        H821   0.966       .  S
C797       C1025   1.483       .  S
C798       C1010   1.474       .  S
C799       C1022   1.480       .  S
O800        H836   0.990       .  S
O801        C803   1.284       .  A
O802        C803   1.286       .  A
C803       C1029   1.477       .  S
O804       Zr805   2.437       .  S
O804        H833   0.990       .  S
Zr805       O808   2.436       .  S
Zr805       O809   2.439       .  S
Zr805       O810   2.426       .  S
O806        C811   1.287       .  A
O807        H824   0.990       .  S
O807        H839   0.990       .  S
O808        H825   0.990       .  S
O809        H829   0.990       .  S
O809        H838   0.990       .  S
O810        C811   1.282       .  A
C811       C1013   1.480       .  S
O812        H831   0.990       .  S
O812        H835   0.990       .  S
O813        H827   0.990       .  S
O813        H834   0.990       .  S
O814        C818   1.283       .  A
O815        C818   1.291       .  A
O816        H826   0.990       .  S
O817        H830   0.990       .  S
C818       C1017   1.485       .  S
C841       C1003   1.430       .  S
C843       C1007   1.441       .  S
C843        N844   1.357       .  A
C845       C1005   1.431       .  S
C845        N846   1.354       .  A
C847       C1000   1.501       .  S
C847        C848   1.411   1_554  A
C847        C852   1.416       .  A
C848        H853   1.084       .  S
C849       C1014   1.482       .  S
C849        C850   1.403       .  A
C850        H854   1.085       .  S
C851       C1008   1.446       .  S
C851        C852   1.406       .  A
C852        H855   1.081       .  S
C856       C1030   1.477       .  S
C856        C857   1.401       .  A
C856        C861   1.409       .  A
C857        C858   1.396       .  A
C857        H862   1.085       .  S
C858       C1004   1.435       .  S
C858        C859   1.395   1_556  A
C859        C860   1.406       .  A
C859        H863   1.085       .  S
C860        C996   1.480       .  S
C860        C861   1.404   1_554  A
C861        H864   1.083       .  S
C865       C1018   1.484       .  S
C865        C870   1.400       .  A
C866        C867   1.414   1_556  A
C866        H871   1.083       .  S
C867        C991   1.490       .  S
C867        C868   1.406       .  A
C868        C869   1.395   1_554  A
C868        H872   1.084       .  S
C869       C1006   1.436       .  S
C870        H873   1.085       .  S
Zr874       O875   2.441       .  S
Zr874       O876   2.446       .  S
Zr874       O877   2.461       .  S
Zr874       O880   2.459       .  S
Zr874       O882   2.387       .  S
Zr874       O883   2.387       .  S
Zr874       O884   2.416       .  S
Zr874       O885   2.411       .  S
O875        H931   0.991       .  S
O875        H939   0.990       .  S
O876        C896   1.286       .  A
O877        C898   1.288       .  A
O878       Zr888   2.420       .  S
O878        C897   1.282       .  A
O879       Zr887   2.435       .  S
O879        C898   1.284       .  A
O880        C897   1.288       .  A
O881       Zr889   2.404       .  S
O881        C896   1.277       .  A
O882       Zr887   2.397       .  S
O882       Zr889   2.384       .  S
O883       Zr888   2.392       .  S
O883       Zr889   2.375       .  S
O883        H918   0.966       .  S
O884       Zr887   2.401       .  S
O884       Zr904   2.396       .  S
O884        H921   0.965       .  S
O885       Zr888   2.394       .  S
O885       Zr904   2.403       .  S
Zr886       O911   2.448       .  S
Zr886       O905   2.434       .  S
Zr886       O913   2.445       .  S
Zr886       O901   2.432       .  S
Zr886       O892   2.400       .  S
Zr886       O893   2.405       .  S
Zr886       O894   2.380       .  S
Zr886       O895   2.383       .  S
Zr887       O906   2.438       .  S
Zr887       O899   2.435       .  S
Zr887       O900   2.437       .  S
Zr887       O893   2.394       .  S
Zr887       O894   2.391       .  S
Zr888       O890   2.435       .  S
Zr888       O912   2.439       .  S
Zr888       O914   2.426       .  S
Zr888       O892   2.388       .  S
Zr888       O895   2.385       .  S
Zr889       O915   2.436       .  S
Zr889       O916   2.437       .  S
Zr889       O891   2.437       .  S
Zr889       O892   2.389       .  S
Zr889       O893   2.383       .  S
O890        H927   0.990       .  S
O891        H922   0.990       .  S
O891        H936   0.990       .  S
O893        H919   0.966       .  S
O894       Zr904   2.374       .  S
O895       Zr904   2.374       .  S
O895        H920   0.966       .  S
C896        C995   1.469       .  S
C897        C992   1.479       .  S
C898        C999   1.486       .  S
O899        H935   0.990       .  S
O900        C902   1.287       .  A
O901        C902   1.284       .  A
C902        C988   1.477       .  S
O903       Zr904   2.440       .  S
O903        H932   0.991       .  S
Zr904       O907   2.437       .  S
Zr904       O908   2.438       .  S
Zr904       O909   2.440       .  S
O905        C910   1.284       .  A
O906        H923   0.990       .  S
O906        H938   0.990       .  S
O907        H924   0.990       .  S
O908        H928   0.990       .  S
O908        H937   0.990       .  S
O909        C910   1.287       .  A
C910        C984   1.484       .  S
O911        H930   0.990       .  S
O911        H934   0.991       .  S
O912        H926   0.990       .  S
O912        H933   0.990       .  S
O913        C917   1.287       .  A
O914        C917   1.284       .  A
O915        H925   0.990       .  S
O916        H929   0.990       .  S
C917        C979   1.477       .  S
C940        C978   1.434       .  S
C940        N945   1.359   1_655  A
N941        C942   1.355       .  A
C942        C974   1.428       .  S
N943        C944   1.353       .  A
C944        C975   1.435       .  S
C946       C1021   1.495       .  S
C946        C947   1.411       .  A
C946        C951   1.414       .  A
C947        H952   1.084       .  S
C948        C983   1.480   1_545  S
C948        C949   1.399       .  A
C949        H953   1.085   1_545  S
C950        C976   1.440       .  S
C950        C951   1.402       .  A
C951        H954   1.081       .  S
C955        C980   1.479       .  S
C955        C956   1.403       .  A
C956        C957   1.392       .  A
C956        H961   1.085       .  S
C958        C959   1.404       .  A
C958        H962   1.085       .  S
C959       C1009   1.484       .  S
C959        C960   1.412   1_655  A
C960        H963   1.083       .  S
C964        C987   1.478       .  S
C964        C965   1.411       .  A
C964        C969   1.402       .  A
C965        C966   1.407       .  A
C965        H970   1.083       .  S
C966       C1026   1.478       .  S
C966        C967   1.401       .  A
C967        C968   1.396       .  A
C967        H971   1.085       .  S
C968        C977   1.438       .  S
C968        C969   1.398       .  A
C969        H972   1.085       .  S
C973        C974   1.201       .  T
C975        C976   1.206       .  T
C977        C978   1.205       .  T
C979        C980   1.345       .  D
C979        H981   1.088       .  S
C980        H982   1.086       .  S
C983        C984   1.345       .  D
C983        H985   1.087       .  S
C984        H986   1.087       .  S
C987        C988   1.343       .  D
C987        H989   1.087       .  S
C988        H990   1.087       .  S
C991        C992   1.347       .  D
C991        H993   1.086       .  S
C992        H994   1.088       .  S
C995        C996   1.341       .  D
C995        H997   1.088       .  S
C996        H998   1.086       .  S
C999       C1000   1.351       .  D
C999       H1001   1.083       .  S
C1000      H1002   1.087       .  S
C1003      C1004   1.203       .  T
C1005      C1006   1.203       .  T
C1007      C1008   1.209       .  T
C1009      C1010   1.345       .  D
C1009      H1011   1.086       .  S
C1010      H1012   1.088       .  S
C1013      C1014   1.348       .  D
C1013      H1015   1.087       .  S
C1014      H1016   1.086       .  S
C1017      C1018   1.342       .  D
C1017      H1019   1.088       .  S
C1018      H1020   1.086       .  S
C1021      C1022   1.349       .  D
C1021      H1023   1.087       .  S
C1022      H1024   1.083       .  S
C1025      C1026   1.346       .  D
C1025      H1027   1.087       .  S
C1026      H1028   1.087       .  S
C1029      C1030   1.345       .  D
C1029      H1031   1.086       .  S
C1030      H1032   1.087       .  S
