geometry optimzed in LAMMPS
_audit_creation_date              2020-12-01 
_audit_creation_method            'lammps2cif' 
_symmetry_space_group_name_H-M    'P1' 
_symmetry_Int_Tables_number       1 
_symmetry_cell_setting            triclinic 
loop_ 
_symmetry_equiv_pos_as_xyz 
  x,y,z 
_cell_length_a                    29.45844077 
_cell_length_b                    29.565796831933774 
_cell_length_c                    41.22158369380341 
_cell_angle_alpha                 90.35174131122409 
_cell_angle_beta                  89.85588566341538 
_cell_angle_gamma                 119.55333426277492 
loop_ 
_atom_site_label 
_atom_site_type_symbol 
_atom_site_fract_x 
_atom_site_fract_y 
_atom_site_fract_z 
_atom_site_charge 
O1          O  0.35452126  0.26433998  0.22234856    -0.86000
O2          O  0.26361284  0.17300289  0.20879907    -0.83000
C3          C  0.23188326  0.12479586  0.20761358     0.97500
O4          O  0.23706662  0.09456515  0.22687269    -0.83100
O5          O  0.32726329  0.09414026  0.20872505    -0.85700
C6          C  0.37551221  0.11139955  0.20465000     1.02000
O7          O  0.40881595  0.14711264  0.22261149    -0.78500
O8          O  0.40736486  0.23618308  0.20664079    -0.78700
C9          C  0.38847996  0.26590743  0.20287440     1.01900
O10         O  0.33658927  0.24285902  0.29044233    -0.86000
O11         O  0.24217700  0.15661630  0.27680671    -0.83100
C12         C  0.23775182  0.12173192  0.29624849     0.97500
O13         O  0.26694566  0.10194102  0.29321513    -0.83100
O14         O  0.35173152  0.09166388  0.27501804    -0.85700
C15         C  0.38814823  0.12217011  0.29361305     1.02000
O16         O  0.40789090  0.17071544  0.29038283    -0.78500
O17         O  0.41522370  0.26465611  0.27376539    -0.78700
C18         C  0.38534585  0.27124118  0.29292544     1.01900
Cr19       Cr  0.30204009  0.20640308  0.24957794     1.93700
Cr20       Cr  0.29869664  0.10118605  0.25082959     1.93200
Cr21       Cr  0.40427099  0.20208897  0.24851124     1.39100
O22         O  0.33507106  0.16995661  0.24947799    -1.23800
C23         C  0.50094050  0.00134479  0.07206955     0.85800
C24         C  0.05395109  0.02830368  0.08969959    -0.54400
C25         C  0.05047948  0.02506463  0.12283115     0.08800
C26         C  0.49409482  0.99357418  0.13519221     0.19700
C27         C  0.47554665  0.44487192  0.08450869    -0.55100
C28         C  0.47206127  0.44091998  0.11734800     0.08900
C29         C  0.46913559  0.02422924  0.08755793    -0.54700
C30         C  0.46529857  0.02002070  0.12050381     0.09400
H31         H  0.09134953  0.04649685  0.07745672     0.13900
H32         H  0.49027993  0.99045873  0.16194216    -0.00300
H33         H  0.46265481  0.41094744  0.06895397     0.14300
H34         H  0.45139060  0.04248381  0.07358320     0.14000
C35         C  0.50244366  0.00398731  0.42870214     0.85800
C36         C  0.47904186  0.44900852  0.41288120    -0.54400
C37         C  0.47901030  0.44944822  0.37975362     0.08800
C38         C  0.50305051  0.00450736  0.36539332     0.19700
C39         C  0.05746145  0.03340593  0.41362824    -0.55100
C40         C  0.05756404  0.03433824  0.38058268     0.08900
C41         C  0.47231141  0.02889689  0.41362266    -0.54700
C42         C  0.47248476  0.02890818  0.38052829     0.09400
H43         H  0.46512453  0.41325345  0.42644443     0.13900
H44         H  0.50320364  0.00471037  0.33847068    -0.00300
H45         H  0.09353097  0.05123625  0.42740889     0.14300
H46         H  0.45263984  0.04508923  0.42789600     0.14000
C47         C  0.45817464  0.46739566  0.01734275    -0.27000
C48         C  0.50167000  0.00511556  0.03497210    -0.15000
C49         C  0.04026348  0.04802216  0.01747151     0.35600
C50         C  0.03999339  0.04622613  0.48341753    -0.26400
C51         C  0.50083575  0.00457174  0.46587290    -0.15700
C52         C  0.45676764  0.46697114  0.48337748     0.36700
N53         N  0.41024717  0.42975755  0.46700416    -0.89900
H54         H  0.42431202  0.43794860  0.03002233     0.17800
H55         H  0.07002795  0.07932411  0.47064661     0.17800
N56         N  0.07808114  0.09419821  0.03408101    -0.88900
H57         H  0.37941815  0.43500949  0.47496224     0.35200
H58         H  0.40223180  0.39254712  0.47386425     0.40300
H59         H  0.05787030  0.11041397  0.04576419     0.39900
H60         H  0.10359208  0.12201588  0.01768097     0.34800
C61         C  0.37967329  0.03505904  0.18404141    -0.27000
C62         C  0.39396312  0.08742094  0.18047604    -0.15000
C63         C  0.43012388  0.11739297  0.15630787     0.35600
C64         C  0.45164017  0.09415482  0.13617614    -0.26400
C65         C  0.43865286  0.04201997  0.14045638    -0.15700
C66         C  0.40218558  0.01237588  0.16457582     0.36700
N67         N  0.38856800  0.45943558  0.17004421    -0.89900
H68         H  0.35244913  0.01216444  0.20293396     0.17800
H69         H  0.98009366  0.11727026  0.11805876     0.17800
N70         N  0.44537270  0.17138445  0.15273244    -0.88900
H71         H  0.34810715  0.43681788  0.16741147     0.35200
H72         H  0.39803481  0.45559496  0.19392298     0.40300
H73         H  0.41229440  0.17336456  0.14573670     0.39900
H74         H  0.47258443  0.18805391  0.13401644     0.34800
C75         C  0.14467801  0.05227504  0.19297671    -0.27000
C76         C  0.18611035  0.10185996  0.18533047    -0.15000
C77         C  0.18231293  0.12628977  0.15682310     0.35600
C78         C  0.13819121  0.10043975  0.13681162    -0.26400
C79         C  0.09706139  0.05058729  0.14452136    -0.15700
C80         C  0.10080986  0.02655123  0.17303459     0.36700
N81         N  0.06114195  0.47567670  0.18185289    -0.89900
H82         H  0.14614761  0.03263197  0.21473184     0.17800
H83         H  0.13576363  0.11994523  0.11526012     0.17800
N84         N  0.22240514  0.17687688  0.14733809    -0.88900
H85         H  0.04646947  0.47766605  0.20461819     0.35200
H86         H  0.07867311  0.45253949  0.18416252     0.40300
H87         H  0.25757797  0.17645753  0.14530419     0.39900
H88         H  0.22594373  0.20340808  0.16536532     0.34800
C89         C  0.39726115  0.36634648  0.14277779    -0.27000
C90         C  0.44997621  0.39076510  0.13437001    -0.15000
C91         C  0.48077840  0.36866412  0.14417606     0.35600
C92         C  0.45942533  0.32640496  0.16561404    -0.26400
C93         C  0.40777698  0.30515286  0.17671094    -0.15700
C94         C  0.37594727  0.32406578  0.16394776     0.34800
N95         N  0.32190086  0.30060007  0.17246353    -0.89900
H96         H  0.37267389  0.38096697  0.13342032     0.17800
H97         H  0.48396441  0.31135763  0.17447573     0.17800
N98         N  0.03416748  0.38882784  0.13371793    -0.88900
H99         H  0.30012129  0.28853482  0.15102403     0.35200
H100        H  0.31554405  0.32908125  0.18326352     0.40300
H101        H  0.04553837  0.41965134  0.11761967     0.39900
H102        H  0.03578300  0.35915321  0.12074859     0.34800
C103        C  0.46037204  0.10390925  0.36503419    -0.27000
C104        C  0.44723617  0.05173733  0.36052007    -0.15000
C105        C  0.41347845  0.02285479  0.33513392     0.35600
C106        C  0.39423766  0.04654655  0.31425126    -0.26400
C107        C  0.40837070  0.09930131  0.31783229    -0.15700
C108        C  0.44156719  0.12822263  0.34382119     0.36700
N109        N  0.45659087  0.18203857  0.34843463    -0.89900
H110        H  0.98523175  0.12498569  0.38525588     0.17800
H111        H  0.36873973  0.02338557  0.29465879     0.17800
N112        N  0.39922420  0.46917911  0.32976271    -0.88900
H113        H  0.97973616  0.19641041  0.36944797     0.35200
H114        H  0.42300772  0.18373246  0.35462110     0.40300
H115        H  0.41116157  0.46529354  0.30649937     0.39900
H116        H  0.35853116  0.44701538  0.33071043     0.34800
C117        C  0.14291846  0.04344756  0.36401419    -0.27000
C118        C  0.10592078  0.05997293  0.36108978    -0.15000
C119        C  0.11514050  0.10002612  0.33920088     0.35600
C120        C  0.15939857  0.12073223  0.31957883    -0.26400
C121        C  0.19525129  0.10231078  0.32085411    -0.15700
C122        C  0.18761289  0.06415642  0.34414408     0.36700
N123        N  0.22454053  0.04600989  0.34733581    -0.89900
H124        H  0.13617447  0.01331732  0.38132193     0.17800
H125        H  0.16480711  0.15071692  0.30251294     0.17800
N126        N  0.08085916  0.12127273  0.33671164    -0.88900
H127        H  0.21223110  0.01698966  0.36493001     0.35200
H128        H  0.25946541  0.07717851  0.35586021     0.40300
H129        H  0.07601101  0.13310121  0.35979909     0.39900
H130        H  0.04475354  0.09261046  0.32801400     0.34800
C131        C  0.45982713  0.35534838  0.31117643    -0.27000
C132        C  0.40876771  0.31471750  0.31692433    -0.15000
C133        C  0.38229372  0.31733181  0.34506925     0.35600
C134        C  0.40675585  0.36045327  0.36592897    -0.26400
C135        C  0.45693166  0.40170870  0.35930306    -0.15700
C136        C  0.48414563  0.39853385  0.33200945     0.36700
N137        N  0.03724751  0.43814052  0.32652524    -0.89900
H138        H  0.48092225  0.35390265  0.28999105     0.17800
H139        H  0.38562376  0.36256863  0.38691445     0.17800
N140        N  0.33086635  0.27704626  0.35332056    -0.88900
H141        H  0.05179167  0.43003273  0.30545150     0.35200
H142        H  0.06015375  0.43771508  0.34572347     0.40300
H143        H  0.33093341  0.24176499  0.35458773     0.39900
H144        H  0.30488361  0.27461802  0.33529460     0.34800
O145        O  0.35461403  0.26438060  0.72243078    -0.86000
O146        O  0.26381202  0.17306763  0.70868091    -0.83000
C147        C  0.23203723  0.12487483  0.70746992     0.97500
O148        O  0.23725315  0.09458824  0.72667421    -0.83100
O149        O  0.32764297  0.09431168  0.70871513    -0.85700
C150        C  0.37592576  0.11161534  0.70476171     1.02000
O151        O  0.40910162  0.14730219  0.72278979    -0.78500
O152        O  0.40759080  0.23634295  0.70681223    -0.78700
C153        C  0.38861877  0.26598463  0.70298730     1.01900
O154        O  0.33636308  0.24274912  0.79048225    -0.86000
O155        O  0.24209916  0.15642968  0.77663266    -0.83100
C156        C  0.23762608  0.12150769  0.79605532     0.97500
O157        O  0.26688290  0.10178657  0.79308197    -0.83100
O158        O  0.35177151  0.09163055  0.77503748    -0.85700
C159        C  0.38809485  0.12209303  0.79370422     1.02000
O160        O  0.40780739  0.17065038  0.79054513    -0.78500
O161        O  0.41507611  0.26458077  0.77396788    -0.78700
C162        C  0.38510714  0.27115122  0.79305373     1.01900
Cr163      Cr  0.30204915  0.20635403  0.74954209     1.93700
Cr164      Cr  0.29882072  0.10118381  0.75075323     1.93200
Cr165      Cr  0.40434431  0.20214641  0.74867818     1.39100
O166        O  0.33514301  0.16995925  0.74949830    -1.23800
C167        C  0.50099779  0.00129493  0.57210663     0.85800
C168        C  0.05380453  0.02833497  0.58973351    -0.54400
C169        C  0.05034471  0.02521811  0.62286356     0.08800
C170        C  0.49398070  0.99336534  0.63522709     0.19700
C171        C  0.47543886  0.44481861  0.58456589    -0.55100
C172        C  0.47203098  0.44095565  0.61740986     0.08900
C173        C  0.46930278  0.02430995  0.58760570    -0.54700
C174        C  0.46540090  0.02001824  0.62054846     0.09400
H175        H  0.09121236  0.04649595  0.57750241     0.13900
H176        H  0.49009758  0.99018521  0.66197472    -0.00300
H177        H  0.46254962  0.41085240  0.56905038     0.14300
H178        H  0.45173098  0.04275499  0.57365182     0.14000
C179        C  0.50245948  0.00393864  0.92870863     0.85800
C180        C  0.47900342  0.44908434  0.91290273    -0.54400
C181        C  0.47893040  0.44946895  0.87978207     0.08800
C182        C  0.50321133  0.00461710  0.86540773     0.19700
C183        C  0.05743174  0.03343565  0.91344102    -0.55100
C184        C  0.05741214  0.03429544  0.88038416     0.08900
C185        C  0.47225078  0.02875336  0.91364168    -0.54700
C186        C  0.47249084  0.02884841  0.88055595     0.09400
H187        H  0.46492532  0.41332655  0.92648577     0.13900
H188        H  0.50345401  0.00496090  0.83848751    -0.00300
H189        H  0.09354455  0.05123160  0.92717772     0.14300
H190        H  0.45246637  0.04481912  0.92792169     0.14000
C191        C  0.45803305  0.46710431  0.51735392    -0.27000
C192        C  0.50179517  0.00512828  0.53500044    -0.15000
C193        C  0.04004898  0.04786713  0.51753521     0.35600
C194        C  0.04020492  0.04636764  0.98333804    -0.26400
C195        C  0.50077019  0.00451361  0.96586764    -0.15700
C196        C  0.45690300  0.46729289  0.98336535     0.36700
N197        N  0.41025903  0.43031825  0.96699448    -0.89900
H198        H  0.42424079  0.43755258  0.53003162     0.17800
H199        H  0.07027597  0.07942325  0.97055390     0.17800
N200        N  0.07787363  0.09403409  0.53415096    -0.88900
H201        H  0.37961408  0.43586544  0.97495083     0.35200
H202        H  0.40194850  0.39301639  0.97385996     0.40300
H203        H  0.05767049  0.11011164  0.54598064     0.39900
H204        H  0.10323457  0.12196938  0.51773959     0.34800
C205        C  0.37962200  0.03517214  0.68387556    -0.27000
C206        C  0.39455887  0.08774635  0.68063511    -0.15000
C207        C  0.43143675  0.11793718  0.65684731     0.35600
C208        C  0.45278388  0.09461682  0.63664574    -0.26400
C209        C  0.43899667  0.04219981  0.64054413    -0.15700
C210        C  0.40207542  0.01243326  0.66441368     0.36700
N211        N  0.38854430  0.45943886  0.67003513    -0.89900
H212        H  0.35194909  0.01213448  0.70253545     0.17800
H213        H  0.97943342  0.11706840  0.61770502     0.17800
N214        N  0.44755659  0.17220656  0.65373015    -0.88900
H215        H  0.34809388  0.43671218  0.66738112     0.35200
H216        H  0.39800115  0.45569374  0.69393174     0.40300
H217        H  0.41493995  0.17495738  0.64666862     0.39900
H218        H  0.47515212  0.18898024  0.63521398     0.34800
C219        C  0.14474975  0.05241394  0.69287626    -0.27000
C220        C  0.18614793  0.10203251  0.68525053    -0.15000
C221        C  0.18215294  0.12659610  0.65685364     0.35600
C222        C  0.13795342  0.10077125  0.63688731    -0.26400
C223        C  0.09693186  0.05083271  0.64454555    -0.15700
C224        C  0.10081291  0.02672789  0.67298147     0.36700
N225        N  0.06120739  0.47562757  0.68187984    -0.89900
H226        H  0.14631841  0.03269162  0.71456554     0.17800
H227        H  0.13539435  0.12032974  0.61539888     0.17800
N228        N  0.22211633  0.17728439  0.64743241    -0.88900
H229        H  0.04647058  0.47767188  0.70460966     0.35200
H230        H  0.07869324  0.45245912  0.68426869     0.40300
H231        H  0.25732097  0.17696497  0.64524417     0.39900
H232        H  0.22569472  0.20367745  0.66556851     0.34800
C233        C  0.39731778  0.36644115  0.64293361    -0.27000
C234        C  0.45000649  0.39083391  0.63447720    -0.15000
C235        C  0.48079335  0.36867218  0.64420934     0.35600
C236        C  0.45943763  0.32634574  0.66560037    -0.26400
C237        C  0.40784793  0.30518069  0.67679183    -0.15700
C238        C  0.37603553  0.32418575  0.66411857     0.34800
N239        N  0.32205108  0.30088268  0.67276631    -0.89900
H240        H  0.37272158  0.38106401  0.63360011     0.17800
H241        H  0.48395632  0.31122671  0.67438631     0.17800
N242        N  0.03407013  0.38902412  0.63380510    -0.88900
H243        H  0.30012939  0.28889767  0.65138360     0.35200
H244        H  0.31589407  0.32944604  0.68364608     0.40300
H245        H  0.04543121  0.41970841  0.61760970     0.39900
H246        H  0.03572512  0.35926284  0.62095255     0.34800
C247        C  0.45973670  0.10357489  0.86535049    -0.27000
C248        C  0.44715064  0.05160441  0.86057398    -0.15000
C249        C  0.41380073  0.02286559  0.83499504     0.35600
C250        C  0.39463366  0.04658717  0.81408335    -0.26400
C251        C  0.40826805  0.09917104  0.81791457    -0.15700
C252        C  0.44083095  0.12785991  0.84419052     0.36700
N253        N  0.45502591  0.18139196  0.84918058    -0.89900
H254        H  0.98683496  0.12588885  0.88448054     0.17800
H255        H  0.36954283  0.02358505  0.79429969     0.17800
N256        N  0.39814896  0.46881761  0.83058780    -0.88900
H257        H  0.98271004  0.19775325  0.86802335     0.35200
H258        H  0.42101550  0.18243568  0.85508847     0.40300
H259        H  0.40923113  0.46418164  0.80723068     0.39900
H260        H  0.35747748  0.44700817  0.83206058     0.34800
C261        C  0.14270996  0.04328201  0.86379158    -0.27000
C262        C  0.10569248  0.05977484  0.86080436    -0.15000
C263        C  0.11484155  0.09965875  0.83878450     0.35600
C264        C  0.15906749  0.12026762  0.81915166    -0.26400
C265        C  0.19501137  0.10198246  0.82056571    -0.15700
C266        C  0.18740740  0.06393732  0.84392685     0.36700
N267        N  0.22439027  0.04587649  0.84721315    -0.89900
H268        H  0.13600814  0.01325639  0.88117172     0.17800
H269        H  0.16442253  0.15013419  0.80200312     0.17800
N270        N  0.08058922  0.12092154  0.83620783    -0.88900
H271        H  0.21209082  0.01691631  0.86485014     0.35200
H272        H  0.25927879  0.07710051  0.85572711     0.40300
H273        H  0.07583504  0.13294728  0.85925290     0.39900
H274        H  0.04445571  0.09223315  0.82756651     0.34800
C275        C  0.45987288  0.35482930  0.81161721    -0.27000
C276        C  0.40846926  0.31464368  0.81706072    -0.15000
C277        C  0.38163988  0.31777390  0.84488173     0.35600
C278        C  0.40615644  0.36089761  0.86573835    -0.26400
C279        C  0.45669039  0.40169436  0.85938525    -0.15700
C280        C  0.48419497  0.39806025  0.83240950     0.36700
N281        N  0.03707628  0.43894905  0.82607480    -0.89900
H282        H  0.48124994  0.35303024  0.79068661     0.17800
H283        H  0.38481296  0.36341490  0.88648390     0.17800
N284        N  0.32976391  0.27807541  0.85277755    -0.88900
H285        H  0.05164924  0.43087063  0.80501440     0.35200
H286        H  0.06015108  0.43877931  0.84525888     0.40300
H287        H  0.32917235  0.24249427  0.85432852     0.39900
H288        H  0.30440726  0.27601342  0.83443289     0.34800
O289        O  0.35475354  0.76454656  0.22249251    -0.86000
O290        O  0.26394744  0.67321147  0.20876550    -0.83000
C291        C  0.23209306  0.62503692  0.20761472     0.97500
O292        O  0.23725675  0.59477915  0.22686976    -0.83100
O293        O  0.32758567  0.59438790  0.20883228    -0.85700
C294        C  0.37585618  0.61160794  0.20487887     1.02000
O295        O  0.40909464  0.64734245  0.22286756    -0.78500
O296        O  0.40786556  0.73659927  0.20698678    -0.78700
C297        C  0.38890410  0.76624875  0.20313923     1.01900
O298        O  0.33650816  0.74303013  0.29053430    -0.86000
O299        O  0.24225298  0.65666363  0.27676298    -0.83100
C300        C  0.23788407  0.62183492  0.29623808     0.97500
O301        O  0.26712519  0.60210542  0.29324362    -0.83100
O302        O  0.35180101  0.59171961  0.27509427    -0.85700
C303        C  0.38811130  0.62210601  0.29378491     1.02000
O304        O  0.40784132  0.67067119  0.29068474    -0.78500
O305        O  0.41524797  0.76467994  0.27415578    -0.78700
C306        C  0.38525525  0.77134971  0.29316716     1.01900
Cr307      Cr  0.30218727  0.70655277  0.24962045     1.93700
Cr308      Cr  0.29887514  0.60136071  0.25088321     1.93200
Cr309      Cr  0.40446213  0.70225046  0.24881914     1.39100
O310        O  0.33526032  0.67013586  0.24960293    -1.23800
C311        C  0.50071201  0.50125743  0.07202831     0.85800
C312        C  0.05394881  0.52849228  0.08984854    -0.54400
C313        C  0.05040364  0.52533228  0.12298255     0.08800
C314        C  0.49391487  0.49334537  0.13514603     0.19700
C315        C  0.47591826  0.94499103  0.08460825    -0.55100
C316        C  0.47242156  0.94111335  0.11745283     0.08900
C317        C  0.46904222  0.52425275  0.08759346    -0.54700
C318        C  0.46524346  0.51997227  0.12054899     0.09400
H319        H  0.09138179  0.54674530  0.07764743     0.13900
H320        H  0.49016694  0.49017512  0.16189354    -0.00300
H321        H  0.46313928  0.91104079  0.06909277     0.14300
H322        H  0.45137234  0.54262748  0.07366589     0.14000
C323        C  0.50215272  0.50355268  0.42867554     0.85800
C324        C  0.47902296  0.94939636  0.41296031    -0.54400
C325        C  0.47890806  0.94975573  0.37984604     0.08800
C326        C  0.50292691  0.50423575  0.36537976     0.19700
C327        C  0.05763864  0.53353006  0.41360122    -0.55100
C328        C  0.05771181  0.53436735  0.38055234     0.08900
C329        C  0.47180912  0.52821297  0.41359838    -0.54700
C330        C  0.47206369  0.52830898  0.38051334     0.09400
H331        H  0.46497213  0.91364638  0.42654879     0.13900
H332        H  0.50318740  0.50461648  0.33846348    -0.00300
H333        H  0.09372331  0.55133467  0.42736563     0.14300
H334        H  0.45196600  0.54422232  0.42787294     0.14000
C335        C  0.45851284  0.96728551  0.01740088    -0.27000
C336        C  0.50143971  0.50505286  0.03492493    -0.15000
C337        C  0.04025018  0.54800229  0.01758963     0.35600
C338        C  0.04042763  0.54654599  0.48342388    -0.26400
C339        C  0.50045163  0.50416550  0.46583050    -0.15700
C340        C  0.45705002  0.96758784  0.48345123     0.36700
N341        N  0.41037521  0.93061338  0.46710823    -0.89900
H342        H  0.42476761  0.93767280  0.03008212     0.17800
H343        H  0.07049188  0.57959971  0.47063698     0.17800
N344        N  0.07798552  0.59419931  0.03421820    -0.88900
H345        H  0.37973966  0.93614240  0.47510285     0.35200
H346        H  0.40209259  0.89331085  0.47395950     0.40300
H347        H  0.05771052  0.61028482  0.04594326     0.39900
H348        H  0.10342963  0.62210964  0.01781759     0.34800
C349        C  0.38039978  0.53532807  0.18454139    -0.27000
C350        C  0.39438973  0.58758462  0.18079320    -0.15000
C351        C  0.43027456  0.61743857  0.15647807     0.35600
C352        C  0.45162332  0.59412862  0.13626753    -0.26400
C353        C  0.43877721  0.54204420  0.14062159    -0.15700
C354        C  0.40276377  0.51257789  0.16500136     0.36700
N355        N  0.38765643  0.95910956  0.16941234    -0.89900
H356        H  0.35348315  0.51256480  0.20359867     0.17800
H357        H  0.97995780  0.61715052  0.11797060     0.17800
N358        N  0.44541586  0.67139131  0.15283463    -0.88900
H359        H  0.34724258  0.93668120  0.16642610     0.35200
H360        H  0.39654676  0.95486313  0.19335261     0.40300
H361        H  0.41227735  0.67328428  0.14590267     0.39900
H362        H  0.47253082  0.68802087  0.13405375     0.34800
C363        C  0.14468831  0.55268355  0.19312296    -0.27000
C364        C  0.18617805  0.60220196  0.18541585    -0.15000
C365        C  0.18226054  0.62666521  0.15695066     0.35600
C366        C  0.13804507  0.60084278  0.13699963    -0.26400
C367        C  0.09694867  0.55097134  0.14471189    -0.15700
C368        C  0.10076309  0.52696104  0.17321933     0.36700
N369        N  0.06112849  0.97528910  0.18166739    -0.89900
H370        H  0.14619968  0.53304625  0.21486934     0.17800
H371        H  0.13555450  0.62034752  0.11546523     0.17800
N372        N  0.22232778  0.67724695  0.14743867    -0.88900
H373        H  0.04644575  0.97731252  0.20442162     0.35200
H374        H  0.07859262  0.95209169  0.18399043     0.40300
H375        H  0.25746769  0.67679096  0.14529031     0.39900
H376        H  0.22600005  0.70376759  0.16551075     0.34800
C377        C  0.39767045  0.86647015  0.14285172    -0.27000
C378        C  0.45041908  0.89100183  0.13453211    -0.15000
C379        C  0.48131103  0.86908507  0.14450523     0.35600
C380        C  0.45997662  0.82689716  0.16600136    -0.26400
C381        C  0.40826150  0.80552390  0.17699052    -0.15700
C382        C  0.37638759  0.82430431  0.16410727     0.34800
N383        N  0.32233297  0.80085125  0.17260260    -0.89900
H384        H  0.37301954  0.88091175  0.13335169     0.17800
H385        H  0.48456460  0.81197951  0.17497397     0.17800
N386        N  0.03362641  0.88835123  0.13338695    -0.88900
H387        H  0.30056391  0.78869410  0.15116585     0.35200
H388        H  0.31596043  0.82937403  0.18333278     0.40300
H389        H  0.04506385  0.91920664  0.11732016     0.39900
H390        H  0.03506917  0.85861720  0.12036242     0.34800
C391        C  0.45930389  0.60305089  0.36546941    -0.27000
C392        C  0.44681250  0.55114320  0.36052609    -0.15000
C393        C  0.41380694  0.52266393  0.33474658     0.35600
C394        C  0.39477072  0.54655380  0.31387966    -0.26400
C395        C  0.40823630  0.59905694  0.31792773    -0.15700
C396        C  0.44058803  0.62752229  0.34432894     0.36700
N397        N  0.45479567  0.68102700  0.34945682    -0.89900
H398        H  0.98646432  0.62581305  0.38466615     0.17800
H399        H  0.36992963  0.52375451  0.29395168     0.17800
N400        N  0.39833177  0.96914951  0.33057898    -0.88900
H401        H  0.98163942  0.69741848  0.36840399     0.35200
H402        H  0.42078721  0.68203990  0.35542205     0.40300
H403        H  0.40946956  0.96453760  0.30723707     0.39900
H404        H  0.35765323  0.94729327  0.33202144     0.34800
C405        C  0.14310592  0.54353748  0.36400774    -0.27000
C406        C  0.10605192  0.55998377  0.36104163    -0.15000
C407        C  0.11522042  0.59997371  0.33910735     0.35600
C408        C  0.15948385  0.62070948  0.31950593    -0.26400
C409        C  0.19538844  0.60237264  0.32082648    -0.15700
C410        C  0.18778836  0.56424345  0.34412939     0.36700
N411        N  0.22471407  0.54608928  0.34730451    -0.89900
H412        H  0.13640797  0.51345979  0.38134638     0.17800
H413        H  0.16485079  0.65065037  0.30241505     0.17800
N414        N  0.08089745  0.62115565  0.33655310    -0.88900
H415        H  0.21238164  0.51702247  0.36487912     0.35200
H416        H  0.25962796  0.57722806  0.35584648     0.40300
H417        H  0.07599636  0.63300266  0.35961364     0.39900
H418        H  0.04482578  0.59245539  0.32781991     0.34800
C419        C  0.46007065  0.85495190  0.31183315    -0.27000
C420        C  0.40859133  0.81484659  0.31718216    -0.15000
C421        C  0.38163502  0.81807887  0.34490952     0.35600
C422        C  0.40611470  0.86120236  0.36577177    -0.26400
C423        C  0.45670120  0.90194798  0.35948155    -0.15700
C424        C  0.48432079  0.89822855  0.33260206     0.36700
N425        N  0.03691053  0.93881571  0.32582223    -0.89900
H426        H  0.48154366  0.85308029  0.29097733     0.17800
H427        H  0.38469048  0.86378525  0.38645156     0.17800
N428        N  0.32964466  0.77850864  0.35268799    -0.88900
H429        H  0.05123675  0.93100517  0.30454769     0.35200
H430        H  0.06023140  0.93846042  0.34478689     0.40300
H431        H  0.32888902  0.74285418  0.35429119     0.39900
H432        H  0.30445877  0.77656137  0.33426159     0.34800
O433        O  0.35485430  0.76444881  0.72243142    -0.86000
O434        O  0.26391809  0.67318752  0.70890465    -0.83000
C435        C  0.23206907  0.62501108  0.70777561     0.97500
O436        O  0.23718713  0.59477902  0.72706663    -0.83100
O437        O  0.32732204  0.59418892  0.70890368    -0.85700
C438        C  0.37556443  0.61139588  0.70483205     1.02000
O439        O  0.40890809  0.64707384  0.72279663    -0.78500
O440        O  0.40776742  0.73630356  0.70685038    -0.78700
C441        C  0.38884412  0.76598295  0.70300659     1.01900
O442        O  0.33692209  0.74317649  0.79051054    -0.86000
O443        O  0.24246337  0.65693807  0.77693403    -0.83100
C444        C  0.23802524  0.62206760  0.79639346     0.97500
O445        O  0.26719359  0.60225083  0.79337713    -0.83100
O446        O  0.35175112  0.59163549  0.77517124    -0.85700
C447        C  0.38817490  0.62205905  0.79378433     1.02000
O448        O  0.40799077  0.67062018  0.79059070    -0.78500
O449        O  0.41557578  0.76470171  0.77400196    -0.78700
C450        C  0.38568660  0.77144252  0.79306467     1.01900
Cr451      Cr  0.30235178  0.70662225  0.74967804     1.93700
Cr452      Cr  0.29881756  0.60132816  0.75099971     1.93200
Cr453      Cr  0.40450645  0.70210771  0.74871935     1.39100
O454        O  0.33530548  0.67009589  0.74963703    -1.23800
C455        C  0.50053526  0.50116951  0.57202624     0.85800
C456        C  0.05425961  0.52849107  0.58983454    -0.54400
C457        C  0.05067581  0.52532715  0.62296864     0.08800
C458        C  0.49385113  0.49343340  0.63514763     0.19700
C459        C  0.47577387  0.94489928  0.58458756    -0.55100
C460        C  0.47220785  0.94093634  0.61743211     0.08900
C461        C  0.46886002  0.52416681  0.58756446    -0.54700
C462        C  0.46511649  0.51998331  0.62051900     0.09400
H463        H  0.09170072  0.54661484  0.57764321     0.13900
H464        H  0.49014852  0.49034291  0.66189933    -0.00300
H465        H  0.46293140  0.91098993  0.56902491     0.14300
H466        H  0.45112509  0.54245743  0.57361628     0.14000
C467        C  0.50237206  0.50367409  0.92865699     0.85800
C468        C  0.47921942  0.94938978  0.91290740    -0.54400
C469        C  0.47918356  0.94982439  0.87978677     0.08800
C470        C  0.50303323  0.50422227  0.86535163     0.19700
C471        C  0.05759156  0.53359651  0.91366621    -0.55100
C472        C  0.05773538  0.53459299  0.88062305     0.08900
C473        C  0.47221618  0.52852854  0.91357622    -0.54700
C474        C  0.47240944  0.52853863  0.88049281     0.09400
H475        H  0.46528561  0.91362191  0.92645721     0.13900
H476        H  0.50320408  0.50448086  0.83842827    -0.00300
H477        H  0.09364449  0.55132291  0.92746432     0.14300
H478        H  0.45251402  0.54469788  0.92784183     0.14000
C479        C  0.45839214  0.96765486  0.51743020    -0.27000
C480        C  0.50120871  0.50490968  0.53493016    -0.15000
C481        C  0.04062968  0.54813793  0.51755281     0.35600
C482        C  0.04016640  0.54642277  0.98346567    -0.26400
C483        C  0.50069388  0.50431568  0.96581526    -0.15700
C484        C  0.45716555  0.96721891  0.98343066     0.36700
N485        N  0.41061041  0.92999945  0.96709104    -0.89900
H486        H  0.42450250  0.93827846  0.53012832     0.17800
H487        H  0.07017403  0.57955300  0.97070111     0.17800
N488        N  0.07862691  0.59421677  0.53416273    -0.88900
H489        H  0.37978884  0.93522014  0.97510872     0.35200
H490        H  0.40263588  0.89278984  0.97392224     0.40300
H491        H  0.05856187  0.61038171  0.54607617     0.39900
H492        H  0.10396528  0.62213255  0.51774424     0.34800
C493        C  0.38008768  0.53518158  0.68442502    -0.27000
C494        C  0.39396398  0.58739367  0.68065608    -0.15000
C495        C  0.42972764  0.61725631  0.65628833     0.35600
C496        C  0.45118588  0.59401678  0.63610338    -0.26400
C497        C  0.43855525  0.54200396  0.64054376    -0.15700
C498        C  0.40257288  0.51251774  0.66492809     0.36700
N499        N  0.38712846  0.95901871  0.66904787    -0.89900
H500        H  0.35322119  0.51240655  0.70349963     0.17800
H501        H  0.98139127  0.61804636  0.61846070     0.17800
N502        N  0.44465536  0.67114762  0.65257882    -0.88900
H503        H  0.34671927  0.93684633  0.66592589     0.35200
H504        H  0.39575844  0.95444274  0.69298491     0.40300
H505        H  0.41136894  0.67288140  0.64577928     0.39900
H506        H  0.47154271  0.68773631  0.63368790     0.34800
C507        C  0.14475908  0.55259729  0.69319859    -0.27000
C508        C  0.18624732  0.60213322  0.68552439    -0.15000
C509        C  0.18245684  0.62656777  0.65701581     0.35600
C510        C  0.13832293  0.60074349  0.63701092    -0.26400
C511        C  0.09719059  0.55089132  0.64471195    -0.15700
C512        C  0.10089891  0.52687959  0.67324686     0.36700
N513        N  0.06121428  0.97539882  0.68155445    -0.89900
H514        H  0.14620331  0.53296383  0.71496501     0.17800
H515        H  0.13591083  0.62024449  0.61545232     0.17800
N516        N  0.22257524  0.67712939  0.64751720    -0.88900
H517        H  0.04659209  0.97727616  0.70435553     0.35200
H518        H  0.07874577  0.95223782  0.68373880     0.40300
H519        H  0.25772355  0.67665989  0.64545975     0.39900
H520        H  0.22616255  0.70366523  0.66555059     0.34800
C521        C  0.39746134  0.86617869  0.64277981    -0.27000
C522        C  0.45022002  0.89078404  0.63446850    -0.15000
C523        C  0.48113903  0.86885996  0.64438456     0.35600
C524        C  0.45982737  0.82660057  0.66582301    -0.26400
C525        C  0.40810948  0.80515644  0.67680614    -0.15700
C526        C  0.37618829  0.82389011  0.66394309     0.34800
N527        N  0.32209296  0.80025228  0.67236333    -0.89900
H528        H  0.37278405  0.88061792  0.63332349     0.17800
H529        H  0.48444614  0.81170487  0.67477602     0.17800
N530        N  0.03353483  0.88815338  0.63328983    -0.88900
H531        H  0.30042467  0.78823304  0.65088435     0.35200
H532        H  0.31558758  0.82863285  0.68317771     0.40300
H533        H  0.04484088  0.91879011  0.61706277     0.39900
H534        H  0.03485509  0.85824269  0.62040107     0.34800
C535        C  0.46041243  0.60355706  0.86507690    -0.27000
C536        C  0.44718863  0.55138516  0.86052029    -0.15000
C537        C  0.41337519  0.52254265  0.83515327     0.35600
C538        C  0.39414684  0.54630563  0.81431808    -0.26400
C539        C  0.40833171  0.59907419  0.81796230    -0.15700
C540        C  0.44161775  0.62793395  0.84393092     0.36700
N541        N  0.45675942  0.68176415  0.84858924    -0.89900
H542        H  0.98543773  0.62555557  0.88513884     0.17800
H543        H  0.36862164  0.52320042  0.79472025     0.17800
N544        N  0.39895822  0.96926215  0.83029117    -0.88900
H545        H  0.98000716  0.69694425  0.86915664     0.35200
H546        H  0.42332655  0.68346479  0.85517381     0.40300
H547        H  0.41048441  0.96494602  0.80699778     0.39900
H548        H  0.35827437  0.94723803  0.83150660     0.34800
C549        C  0.14300451  0.54354179  0.86400077    -0.27000
C550        C  0.10612586  0.56023359  0.86115911    -0.15000
C551        C  0.11549665  0.60046969  0.83938401     0.35600
C552        C  0.15983468  0.62126932  0.81982974    -0.26400
C553        C  0.19553185  0.60265130  0.82099453    -0.15700
C554        C  0.18769298  0.56422783  0.84412886     0.36700
N555        N  0.22436043  0.54571794  0.84712223    -0.89900
H556        H  0.13613537  0.51325501  0.88121270     0.17800
H557        H  0.16539205  0.65143582  0.80287175     0.17800
N558        N  0.08125024  0.62175845  0.83691490    -0.88900
H559        H  0.21194478  0.51657501  0.86463029     0.35200
H560        H  0.25942857  0.57668799  0.85565897     0.40300
H561        H  0.07627121  0.63341220  0.86002878     0.39900
H562        H  0.04519573  0.59316819  0.82811070     0.34800
C563        C  0.46029040  0.85543321  0.81144138    -0.27000
C564        C  0.40909841  0.81495080  0.81705469    -0.15000
C565        C  0.38245451  0.81774362  0.84506546     0.35600
C566        C  0.40684128  0.86092171  0.86588624    -0.26400
C567        C  0.45712329  0.90205460  0.85936442    -0.15700
C568        C  0.48454573  0.89866487  0.83225460     0.36700
N569        N  0.03679416  0.93822660  0.82621350    -0.89900
H570        H  0.48153986  0.85383199  0.79038220     0.17800
H571        H  0.38558392  0.86317215  0.88676247     0.17800
N572        N  0.33092392  0.77757658  0.85322520    -0.88900
H573        H  0.05121684  0.93025891  0.80504068     0.35200
H574        H  0.05979776  0.93766173  0.84531293     0.40300
H575        H  0.33087221  0.74223867  0.85460193     0.39900
H576        H  0.30509552  0.77518108  0.83510838     0.34800
O577        O  0.85493259  0.26448977  0.22254573    -0.86000
O578        O  0.76412875  0.17318203  0.20874821    -0.83000
C579        C  0.73225477  0.12500993  0.20759841     0.97500
O580        O  0.73730819  0.09475584  0.22690884    -0.83100
O581        O  0.82754319  0.09422385  0.20891914    -0.85700
C582        C  0.87581080  0.11145668  0.20494902     1.02000
O583        O  0.90906041  0.14716315  0.22294297    -0.78500
O584        O  0.90796584  0.23647213  0.20701385    -0.78700
C585        C  0.88902824  0.26614437  0.20316881     1.01900
O586        O  0.83658504  0.24297701  0.29055927    -0.86000
O587        O  0.74225582  0.15667955  0.27672240    -0.83100
C588        C  0.73784658  0.12187144  0.29622482     0.97500
O589        O  0.76708422  0.10212815  0.29328057    -0.83100
O590        O  0.85169107  0.09156663  0.27519757    -0.85700
C591        C  0.88801472  0.12194983  0.29387855     1.02000
O592        O  0.90780555  0.17051729  0.29074594    -0.78500
O593        O  0.91531553  0.26454070  0.27419001    -0.78700
C594        C  0.88534461  0.27123191  0.29320639     1.01900
Cr595      Cr  0.80228654  0.20651853  0.24962795     1.93700
Cr596      Cr  0.79884635  0.10127752  0.25095101     1.93200
Cr597      Cr  0.90449092  0.20210455  0.24886719     1.39100
O598        O  0.83529545  0.17004620  0.24964604    -1.23800
C599        C  0.00069243  0.00128981  0.07202036     0.85800
C600        C  0.55417452  0.02859298  0.08977477    -0.54400
C601        C  0.55066482  0.02544386  0.12291129     0.08800
C602        C  0.99392813  0.99332718  0.13514189     0.19700
C603        C  0.97571835  0.44487938  0.08462739    -0.55100
C604        C  0.97220499  0.44097599  0.11747175     0.08900
C605        C  0.96908173  0.02432714  0.08761925    -0.54700
C606        C  0.96529325  0.02000856  0.12057453     0.09400
H607        H  0.59158301  0.04683891  0.07754071     0.13900
H608        H  0.99019614  0.99014724  0.16189069    -0.00300
H609        H  0.96296198  0.41094938  0.06909549     0.14300
H610        H  0.95143285  0.04274596  0.07371535     0.14000
C611        C  0.00229388  0.00357740  0.42871249     0.85800
C612        C  0.97917459  0.44931844  0.41300443    -0.54400
C613        C  0.97911961  0.44962896  0.37988551     0.08800
C614        C  0.00307674  0.00422385  0.36541616     0.19700
C615        C  0.55758563  0.03352688  0.41354550    -0.55100
C616        C  0.55760850  0.03442667  0.38049891     0.08900
C617        C  0.97193215  0.02820176  0.41362202    -0.54700
C618        C  0.97219357  0.02828907  0.38053998     0.09400
H619        H  0.96516389  0.41359281  0.42661234     0.13900
H620        H  0.00333380  0.00457985  0.33849824    -0.00300
H621        H  0.59370371  0.05123750  0.42727353     0.14300
H622        H  0.95206887  0.04419836  0.42788827     0.14000
C623        C  0.95830893  0.46728196  0.01741279    -0.27000
C624        C  0.00143145  0.00513063  0.03491129    -0.15000
C625        C  0.54027537  0.04818476  0.01754637     0.35600
C626        C  0.54062781  0.04629313  0.48343075    -0.26400
C627        C  0.00055150  0.00420205  0.46586216    -0.15700
C628        C  0.95711909  0.46752194  0.48346936     0.36700
N629        N  0.91051477  0.43036514  0.46714504    -0.89900
H630        H  0.92451304  0.43772133  0.03008423     0.17800
H631        H  0.57080738  0.07928580  0.47066620     0.17800
N632        N  0.57795815  0.09441155  0.03417585    -0.88900
H633        H  0.87977025  0.43572829  0.47512629     0.35200
H634        H  0.90241476  0.39313188  0.47402964     0.40300
H635        H  0.55762058  0.11036604  0.04597979     0.39900
H636        H  0.60326870  0.12239379  0.01776748     0.34800
C637        C  0.88018412  0.03518320  0.18445151    -0.27000
C638        C  0.89434746  0.08750037  0.18082855    -0.15000
C639        C  0.93048289  0.11748217  0.15665727     0.35600
C640        C  0.95185725  0.09421414  0.13643517    -0.26400
C641        C  0.93883598  0.04206045  0.14066866    -0.15700
C642        C  0.90264493  0.01249693  0.16494515     0.36700
N643        N  0.88760280  0.45908052  0.16959147    -0.89900
H644        H  0.85310512  0.01233301  0.20341828     0.17800
H645        H  0.47995192  0.11721703  0.11783623     0.17800
N646        N  0.94586296  0.17152089  0.15318164    -0.88900
H647        H  0.84716731  0.43661452  0.16673051     0.35200
H648        H  0.89668765  0.45496689  0.19351045     0.40300
H649        H  0.91286072  0.17363173  0.14620082     0.39900
H650        H  0.97313901  0.18823499  0.13449335     0.34800
C651        C  0.64491555  0.05265726  0.19303846    -0.27000
C652        C  0.68642606  0.10216743  0.18534555    -0.15000
C653        C  0.68259520  0.12662702  0.15685847     0.35600
C654        C  0.63841028  0.10082769  0.13688349    -0.26400
C655        C  0.59724188  0.05100345  0.14461478    -0.15700
C656        C  0.60099874  0.02698005  0.17313248     0.36700
N657        N  0.56108431  0.47534889  0.18170671    -0.89900
H658        H  0.64637378  0.03301012  0.21479441     0.17800
H659        H  0.63597556  0.12033890  0.11533669     0.17800
N660        N  0.72269560  0.17720580  0.14736961    -0.88900
H661        H  0.54645618  0.47740614  0.20447398     0.35200
H662        H  0.57849187  0.45209913  0.18400856     0.40300
H663        H  0.75784392  0.17674755  0.14527730     0.39900
H664        H  0.72630914  0.20371831  0.16542817     0.34800
C665        C  0.89758476  0.36637670  0.14297430    -0.27000
C666        C  0.95027964  0.39086743  0.13454038    -0.15000
C667        C  0.98121611  0.36895063  0.14442365     0.35600
C668        C  0.95995694  0.32672855  0.16590002    -0.26400
C669        C  0.90829974  0.30538604  0.17699700    -0.15700
C670        C  0.87639601  0.32422535  0.16423523     0.34800
N671        N  0.82240707  0.30087187  0.17288021    -0.89900
H672        H  0.87290594  0.38085052  0.13356811     0.17800
H673        H  0.98457280  0.31179374  0.17479578     0.17800
N674        N  0.53368001  0.38837333  0.13341630    -0.88900
H675        H  0.80048810  0.28876206  0.15149886     0.35200
H676        H  0.81618549  0.32944022  0.18368698     0.40300
H677        H  0.54517028  0.41930514  0.11739955     0.39900
H678        H  0.53509632  0.35867306  0.12033965     0.34800
C679        C  0.95937292  0.10300196  0.36550223    -0.27000
C680        C  0.94690398  0.05109785  0.36056485    -0.15000
C681        C  0.91377172  0.02255191  0.33485243     0.35600
C682        C  0.89461511  0.04638252  0.31402481    -0.26400
C683        C  0.90811509  0.09890213  0.31803826    -0.15700
C684        C  0.94053394  0.12741225  0.34440365     0.36700
N685        N  0.95466725  0.18089623  0.34954025    -0.89900
H686        H  0.48674101  0.12615661  0.38452082     0.17800
H687        H  0.86968020  0.02353520  0.29414303     0.17800
N688        N  0.89898011  0.46921683  0.33017568    -0.88900
H689        H  0.48222324  0.19783234  0.36805075     0.35200
H690        H  0.92064033  0.18185160  0.35552616     0.40300
H691        H  0.91049490  0.46488167  0.30688067     0.39900
H692        H  0.85829446  0.44725294  0.33138311     0.34800
C693        C  0.64307809  0.04369632  0.36401104    -0.27000
C694        C  0.60594690  0.06003551  0.36097335    -0.15000
C695        C  0.61509337  0.09998060  0.33900350     0.35600
C696        C  0.65937696  0.12072409  0.31941420    -0.26400
C697        C  0.69532325  0.10244270  0.32078957    -0.15700
C698        C  0.68778031  0.06441584  0.34415098     0.36700
N699        N  0.72479786  0.04638923  0.34740737    -0.89900
H700        H  0.63642437  0.01368382  0.38139023     0.17800
H701        H  0.66473272  0.15062534  0.30229368     0.17800
N702        N  0.58074624  0.12112998  0.33641321    -0.88900
H703        H  0.71261101  0.01753302  0.36511507     0.35200
H704        H  0.75973305  0.07765438  0.35581321     0.40300
H705        H  0.57581478  0.13298743  0.35946522     0.39900
H706        H  0.54469110  0.09241978  0.32767071     0.34800
C707        C  0.96017836  0.35484568  0.31182023    -0.27000
C708        C  0.90874270  0.31469908  0.31723349    -0.15000
C709        C  0.88190702  0.31784305  0.34504502     0.35600
C710        C  0.90641859  0.36097631  0.36589785    -0.26400
C711        C  0.95694650  0.40178916  0.35953967    -0.15700
C712        C  0.98448253  0.39810991  0.33259456     0.36700
N713        N  0.53663427  0.43895278  0.32566796    -0.89900
H714        H  0.98157575  0.35301193  0.29091096     0.17800
H715        H  0.88505862  0.36350590  0.38663009     0.17800
N716        N  0.83002465  0.27814779  0.35293195    -0.88900
H717        H  0.55092927  0.43119701  0.30435294     0.35200
H718        H  0.56003028  0.43863076  0.34458721     0.40300
H719        H  0.82942153  0.24255978  0.35446732     0.39900
H720        H  0.80467344  0.27610737  0.33458974     0.34800
O721        O  0.85467210  0.26464426  0.72242604    -0.86000
O722        O  0.76380323  0.17329141  0.70886431    -0.83000
C723        C  0.73198771  0.12510494  0.70774199     0.97500
O724        O  0.73719000  0.09488691  0.72700172    -0.83100
O725        O  0.82738849  0.09440544  0.70882818    -0.85700
C726        C  0.87563997  0.11163530  0.70478090     1.02000
O727        O  0.90895813  0.14740568  0.72270394    -0.78500
O728        O  0.90763526  0.23658298  0.70679918    -0.78700
C729        C  0.88871311  0.26627392  0.70300997     1.01900
O730        O  0.83675712  0.24325346  0.79048301    -0.86000
O731        O  0.74236590  0.15694469  0.77686243    -0.83100
C732        C  0.73797099  0.12207886  0.79630804     0.97500
O733        O  0.76722925  0.10236396  0.79330613    -0.83100
O734        O  0.85185902  0.09188996  0.77506284    -0.85700
C735        C  0.88830587  0.12232913  0.79365469     1.02000
O736        O  0.90805523  0.17088712  0.79048115    -0.78500
O737        O  0.91542150  0.26489415  0.77393678    -0.78700
C738        C  0.88551827  0.27156970  0.79302167     1.01900
Cr739      Cr  0.80222100  0.20672375  0.74963856     1.93700
Cr740      Cr  0.79886044  0.10150449  0.75092033     1.93200
Cr741      Cr  0.90446142  0.20237080  0.74863710     1.39100
O742        O  0.83526194  0.17027503  0.74956616    -1.23800
C743        C  0.00053031  0.00118790  0.57205713     0.85800
C744        C  0.55418606  0.02833564  0.58987818    -0.54400
C745        C  0.55056983  0.02515665  0.62300352     0.08800
C746        C  0.99381105  0.99340497  0.63517955     0.19700
C747        C  0.97574800  0.44512079  0.58459422    -0.55100
C748        C  0.97219457  0.44119591  0.61743096     0.08900
C749        C  0.96883303  0.02416388  0.58760285    -0.54700
C750        C  0.96506845  0.01995350  0.62055947     0.09400
H751        H  0.59165841  0.04645998  0.57773062     0.13900
H752        H  0.99010612  0.99028409  0.66193283    -0.00300
H753        H  0.96287988  0.41118071  0.56905690     0.14300
H754        H  0.95112261  0.04248360  0.57365958     0.14000
C755        C  0.00230791  0.00377547  0.92861044     0.85800
C756        C  0.97915500  0.44937548  0.91291950    -0.54400
C757        C  0.97916258  0.44984133  0.87979879     0.08800
C758        C  0.00285324  0.00429242  0.86530029     0.19700
C759        C  0.55763016  0.03363384  0.91361626    -0.55100
C760        C  0.55771459  0.03458157  0.88056568     0.08900
C761        C  0.97206064  0.02856164  0.91355117    -0.54700
C762        C  0.97220863  0.02857184  0.88046384     0.09400
H763        H  0.96513918  0.41359280  0.92646600     0.13900
H764        H  0.00296681  0.00451592  0.83837806    -0.00300
H765        H  0.59369367  0.05140869  0.92740623     0.14300
H766        H  0.95237387  0.04472821  0.92783416     0.14000
C767        C  0.95846297  0.46765707  0.51744149    -0.27000
C768        C  0.00123808  0.00495400  0.53495989    -0.15000
C769        C  0.54083978  0.04785709  0.51755441     0.35600
C770        C  0.54013842  0.04661265  0.98341771    -0.26400
C771        C  0.00067553  0.00440035  0.96578232    -0.15700
C772        C  0.95700331  0.46724817  0.98343565     0.36700
N773        N  0.91041853  0.43016029  0.96706359    -0.89900
H774        H  0.92461756  0.43822051  0.53014011     0.17800
H775        H  0.57004589  0.07978574  0.97062701     0.17800
N776        N  0.57903028  0.09384525  0.53414382    -0.88900
H777        H  0.87966927  0.43550969  0.97506284     0.35200
H778        H  0.90229564  0.39289913  0.97388396     0.40300
H779        H  0.55917600  0.11039144  0.54587179     0.39900
H780        H  0.60470978  0.12153674  0.51773636     0.34800
C781        C  0.88011807  0.03534500  0.68445700    -0.27000
C782        C  0.89408841  0.08758063  0.68067592    -0.15000
C783        C  0.92993867  0.11740856  0.65634093     0.35600
C784        C  0.95135994  0.09410646  0.63618089    -0.26400
C785        C  0.93857819  0.04204640  0.64059565    -0.15700
C786        C  0.90252885  0.01259956  0.66496350     0.36700
N787        N  0.88709395  0.45915919  0.66883538    -0.89900
H788        H  0.85319555  0.01259864  0.70351639     0.17800
H789        H  0.48157473  0.11779400  0.61856285     0.17800
N790        N  0.94496069  0.17132225  0.65262578    -0.88900
H791        H  0.84669139  0.43705006  0.66565855     0.35200
H792        H  0.89564049  0.45441486  0.69275873     0.40300
H793        H  0.91171782  0.17312368  0.64581604     0.39900
H794        H  0.97186567  0.18787073  0.63373688     0.34800
C795        C  0.64472585  0.05258260  0.69318885    -0.27000
C796        C  0.68611715  0.10218987  0.68553277    -0.15000
C797        C  0.68217836  0.12666978  0.65708849     0.35600
C798        C  0.63806187  0.10076064  0.63708017    -0.26400
C799        C  0.59705746  0.05082094  0.64474888    -0.15700
C800        C  0.60084955  0.02681599  0.67325748     0.36700
N801        N  0.56109625  0.47549813  0.68163828    -0.89900
H802        H  0.64625591  0.03293764  0.71492676     0.17800
H803        H  0.63554815  0.12026531  0.61555208     0.17800
N804        N  0.72210852  0.17737392  0.64767045    -0.88900
H805        H  0.54642909  0.47750273  0.70439978     0.35200
H806        H  0.57857648  0.45230999  0.68393997     0.40300
H807        H  0.75736028  0.17712470  0.64554577     0.39900
H808        H  0.72557387  0.20376877  0.66577141     0.34800
C809        C  0.89738888  0.36642553  0.64271706    -0.27000
C810        C  0.95017159  0.39105284  0.63446420    -0.15000
C811        C  0.98109795  0.36918554  0.64445552     0.35600
C812        C  0.95977958  0.32699727  0.66593948    -0.26400
C813        C  0.90803574  0.30554050  0.67687327    -0.15700
C814        C  0.87611746  0.32423982  0.66395824     0.34800
N815        N  0.82203561  0.30067678  0.67240361    -0.89900
H816        H  0.87270601  0.38080034  0.63317903     0.17800
H817        H  0.98439653  0.31213074  0.67493992     0.17800
N818        N  0.53368896  0.38839273  0.63343829    -0.88900
H819        H  0.80032237  0.28846123  0.65094764     0.35200
H820        H  0.81554928  0.32915046  0.68309601     0.40300
H821        H  0.54523831  0.41947702  0.61752597     0.39900
H822        H  0.53506781  0.35877855  0.62025015     0.34800
C823        C  0.96040245  0.10371294  0.86500185    -0.27000
C824        C  0.94703572  0.05148591  0.86049069    -0.15000
C825        C  0.91326201  0.02269607  0.83509307     0.35600
C826        C  0.89419783  0.04654184  0.81420278    -0.26400
C827        C  0.90849623  0.09934387  0.81781414    -0.15700
C828        C  0.94176613  0.12817446  0.84379651     0.36700
N829        N  0.95703757  0.18204900  0.84841165    -0.89900
H830        H  0.48572151  0.12569326  0.88502246     0.17800
H831        H  0.86868036  0.02345655  0.79459666     0.17800
N832        N  0.89954394  0.46949701  0.82990952    -0.88900
H833        H  0.48005501  0.19698787  0.86909650     0.35200
H834        H  0.92356474  0.18392205  0.85461711     0.40300
H835        H  0.91138367  0.46550458  0.80663684     0.39900
H836        H  0.85886271  0.44730762  0.83093787     0.34800
C837        C  0.64285236  0.04336616  0.86382505    -0.27000
C838        C  0.60604758  0.06015937  0.86105322    -0.15000
C839        C  0.61539414  0.10037395  0.83926590     0.35600
C840        C  0.65972298  0.12117190  0.81970881    -0.26400
C841        C  0.69542804  0.10256285  0.82087070    -0.15700
C842        C  0.68751334  0.06402482  0.84393521     0.36700
N843        N  0.72406458  0.04535778  0.84683085    -0.89900
H844        H  0.63595687  0.01303738  0.88100993     0.17800
H845        H  0.66527568  0.15134700  0.80275870     0.17800
N846        N  0.58113598  0.12164731  0.83678729    -0.88900
H847        H  0.71141240  0.01588379  0.86413684     0.35200
H848        H  0.75906776  0.07613011  0.85558531     0.40300
H849        H  0.57617925  0.13333817  0.85989441     0.39900
H850        H  0.54507593  0.09304012  0.82800113     0.34800
C851        C  0.96017541  0.35547063  0.81144367    -0.27000
C852        C  0.90893367  0.31505397  0.81702324    -0.15000
C853        C  0.88225832  0.31790486  0.84500031     0.35600
C854        C  0.90671719  0.36101712  0.86586441    -0.26400
C855        C  0.95703876  0.40209532  0.85936298    -0.15700
C856        C  0.98444579  0.39870277  0.83225136     0.36700
N857        N  0.53696814  0.43807724  0.82634698    -0.89900
H858        H  0.98143284  0.35385216  0.79039491     0.17800
H859        H  0.88546339  0.36329721  0.88673330     0.17800
N860        N  0.83058702  0.27791696  0.85304849    -0.88900
H861        H  0.55151982  0.42995579  0.80528185     0.35200
H862        H  0.55985608  0.43763763  0.84555170     0.40300
H863        H  0.83029122  0.24246139  0.85442557     0.39900
H864        H  0.80493613  0.27573837  0.83487133     0.34800
O865        O  0.85456087  0.76435254  0.22239610    -0.86000
O866        O  0.76365825  0.67300269  0.20884968    -0.83000
C867        C  0.73190820  0.62479843  0.20767046     0.97500
O868        O  0.73706281  0.59458017  0.22695680    -0.83100
O869        O  0.82726427  0.59413566  0.20883181    -0.85700
C870        C  0.87551356  0.61139552  0.20475599     1.02000
O871        O  0.90882709  0.64711953  0.22269998    -0.78500
O872        O  0.90744019  0.73622790  0.20671898    -0.78700
C873        C  0.88852894  0.76592906  0.20293132     1.01900
O874        O  0.83666912  0.74296083  0.29048021    -0.86000
O875        O  0.74221395  0.65668840  0.27686909    -0.83100
C876        C  0.73774807  0.62178435  0.29630797     0.97500
O877        O  0.76695110  0.60199943  0.29330002    -0.83100
O878        O  0.85171663  0.59164518  0.27511080    -0.85700
C879        C  0.88822774  0.62213939  0.29365335     1.02000
O880        O  0.90795475  0.67068970  0.29045265    -0.78500
O881        O  0.91530317  0.76464518  0.27384750    -0.78700
C882        C  0.88543724  0.77127936  0.29298465     1.01900
Cr883      Cr  0.80208933  0.70644258  0.24963143     1.93700
Cr884      Cr  0.79869986  0.60120685  0.25092404     1.93200
Cr885      Cr  0.90431512  0.70209282  0.24859122     1.39100
O886        O  0.83510772  0.66998091  0.24956138    -1.23800
C887        C  0.00073230  0.50123815  0.07211040     0.85800
C888        C  0.55396704  0.52833654  0.08972702    -0.54400
C889        C  0.55047195  0.52512626  0.12285979     0.08800
C890        C  0.99383323  0.49341445  0.13523292     0.19700
C891        C  0.97547989  0.94488228  0.08449524    -0.55100
C892        C  0.97200501  0.94090461  0.11733675     0.08900
C893        C  0.96888819  0.52408728  0.08759854    -0.54700
C894        C  0.96503544  0.51985460  0.12054672     0.09400
H895        H  0.59137923  0.54653829  0.07750024     0.13900
H896        H  0.99001065  0.49027141  0.16198185    -0.00300
H897        H  0.96257206  0.91096076  0.06893726     0.14300
H898        H  0.95116499  0.54236696  0.07362735     0.14000
C899        C  0.00247666  0.50393023  0.42871748     0.85800
C900        C  0.97921233  0.94902899  0.41293836    -0.54400
C901        C  0.97919775  0.94944812  0.37981103     0.08800
C902        C  0.00319684  0.50436057  0.36540922     0.19700
C903        C  0.55731638  0.53336765  0.41358935    -0.55100
C904        C  0.55741897  0.53431383  0.38054412     0.08900
C905        C  0.97229167  0.52872644  0.41357265    -0.54700
C906        C  0.97252935  0.52870331  0.38047964     0.09400
H907        H  0.96528017  0.91328638  0.42651903     0.13900
H908        H  0.00342767  0.50456445  0.33848710    -0.00300
H909        H  0.59338297  0.55118665  0.42737371     0.14300
H910        H  0.95256807  0.54490735  0.42780526     0.14000
C911        C  0.95822333  0.96741673  0.01732446    -0.27000
C912        C  0.00150419  0.50502287  0.03500698    -0.15000
C913        C  0.54027816  0.54793464  0.01749269     0.35600
C914        C  0.53985510  0.54623958  0.48338086    -0.26400
C915        C  0.00082094  0.50461736  0.46588405    -0.15700
C916        C  0.95679770  0.96708455  0.48339285     0.36700
N917        N  0.91027194  0.92993464  0.46699372    -0.89900
H918        H  0.92438830  0.93792022  0.02999780     0.17800
H919        H  0.56983141  0.57937145  0.47060154     0.17800
N920        N  0.57805257  0.59413414  0.03410213    -0.88900
H921        H  0.87949254  0.93531817  0.47488560     0.35200
H922        H  0.90212033  0.89270083  0.47389777     0.40300
H923        H  0.55778621  0.61022783  0.04586288     0.39900
H924        H  0.60343593  0.62202803  0.01769772     0.34800
C925        C  0.87961564  0.53504063  0.18416048    -0.27000
C926        C  0.89396300  0.58741330  0.18059761    -0.15000
C927        C  0.93021093  0.61739589  0.15647235     0.35600
C928        C  0.95160563  0.59409613  0.13629366    -0.26400
C929        C  0.93847323  0.54191090  0.14052322    -0.15700
C930        C  0.90206755  0.51231582  0.16468474     0.36700
N931        N  0.88841732  0.95934102  0.16994891    -0.89900
H932        H  0.85240921  0.51217362  0.20306828     0.17800
H933        H  0.47969608  0.61710518  0.11779496     0.17800
N934        N  0.94569606  0.67146289  0.15300388    -0.88900
H935        H  0.84796691  0.93673653  0.16724403     0.35200
H936        H  0.89776850  0.95543446  0.19384334     0.40300
H937        H  0.91272126  0.67365109  0.14603114     0.39900
H938        H  0.97295580  0.68813239  0.13431367     0.34800
C939        C  0.64471952  0.55225233  0.19298074    -0.27000
C940        C  0.68614006  0.60186304  0.18536780    -0.15000
C941        C  0.68230079  0.62635079  0.15689643     0.35600
C942        C  0.63815194  0.60054004  0.13689547    -0.26400
C943        C  0.59703806  0.55066179  0.14457256    -0.15700
C944        C  0.60080886  0.52658448  0.17306152     0.36700
N945        N  0.56130335  0.97574597  0.18179535    -0.89900
H946        H  0.64621115  0.53255935  0.21470547     0.17800
H947        H  0.63570023  0.62008317  0.11536933     0.17800
N948        N  0.72239081  0.67694816  0.14742688    -0.88900
H949        H  0.54663973  0.97781795  0.20454633     0.35200
H950        H  0.57876762  0.95255497  0.18415374     0.40300
H951        H  0.75755158  0.67651110  0.14534403     0.39900
H952        H  0.72597628  0.70345341  0.16548263     0.34800
C953        C  0.89722289  0.86633608  0.14281760    -0.27000
C954        C  0.94991987  0.89073485  0.13436070    -0.15000
C955        C  0.98072916  0.86863374  0.14415687     0.35600
C956        C  0.95940348  0.82638491  0.16560614    -0.26400
C957        C  0.90778325  0.80515586  0.17674864    -0.15700
C958        C  0.87594689  0.82409308  0.16402163     0.34800
N959        N  0.82193516  0.80070217  0.17261544    -0.89900
H960        H  0.87261906  0.88094136  0.13346973     0.17800
H961        H  0.98395164  0.81133484  0.17444674     0.17800
N962        N  0.53426855  0.88888184  0.13383853    -0.88900
H963        H  0.80007294  0.78863893  0.15121077     0.35200
H964        H  0.81566875  0.82923017  0.18343900     0.40300
H965        H  0.54568244  0.91966385  0.11769623     0.39900
H966        H  0.53586569  0.85915585  0.12092555     0.34800
C967        C  0.96029638  0.60366465  0.36507508    -0.27000
C968        C  0.94736542  0.55157185  0.36042605    -0.15000
C969        C  0.91391830  0.52284367  0.33487933     0.35600
C970        C  0.89476048  0.54660688  0.31399049    -0.26400
C971        C  0.90856818  0.59924591  0.31777459    -0.15700
C972        C  0.94149043  0.62801864  0.34389697     0.36700
N973        N  0.95618651  0.68171473  0.34870639    -0.89900
H974        H  0.48510044  0.62499525  0.38525639     0.17800
H975        H  0.86952219  0.52358323  0.29426523     0.17800
N976        N  0.89917892  0.96905855  0.32990229    -0.88900
H977        H  0.47984431  0.69651288  0.36937125     0.35200
H978        H  0.92242987  0.68312477  0.35485143     0.40300
H979        H  0.91096209  0.96510563  0.30660488     0.39900
H980        H  0.85849727  0.94688641  0.33095942     0.34800
C981        C  0.64278518  0.54341449  0.36399858    -0.27000
C982        C  0.60578224  0.55993193  0.36105175    -0.15000
C983        C  0.61502408  0.59999008  0.33916060     0.35600
C984        C  0.65932127  0.62072579  0.31957033    -0.26400
C985        C  0.69518688  0.60232231  0.32087437    -0.15700
C986        C  0.68751623  0.56415051  0.34415841     0.36700
N987        N  0.72445527  0.54602153  0.34737808    -0.89900
H988        H  0.63601965  0.51327241  0.38130200     0.17800
H989        H  0.66475547  0.65072370  0.30250815     0.17800
N990        N  0.58073046  0.62121859  0.33664056    -0.88900
H991        H  0.71219694  0.51709402  0.36502911     0.35200
H992        H  0.75940538  0.57722962  0.35584275     0.40300
H993        H  0.57582304  0.63301862  0.35972373     0.39900
H994        H  0.54465080  0.59255929  0.32790990     0.34800
C995        C  0.96002339  0.85529294  0.31127829    -0.27000
C996        C  0.90890987  0.81473179  0.31699420    -0.15000
C997        C  0.88244031  0.81737428  0.34512981     0.35600
C998        C  0.90693465  0.86047514  0.36599816    -0.26400
C999        C  0.95713319  0.90169162  0.35938323    -0.15700
C1000       C  0.98437318  0.89846492  0.33212165     0.36700
N1001       N  0.53712093  0.93823484  0.32659832    -0.89900
H1002       H  0.98112936  0.85381013  0.29010923     0.17800
H1003       H  0.88579956  0.86262040  0.38697264     0.17800
N1004       N  0.83097239  0.77714759  0.35335493    -0.88900
H1005       H  0.55179049  0.93002760  0.30562358     0.35200
H1006       H  0.55991946  0.93790680  0.34589755     0.40300
H1007       H  0.83095882  0.74182527  0.35460746     0.39900
H1008       H  0.80503282  0.77480032  0.33532323     0.34800
O1009       O  0.85452624  0.76438091  0.72247101    -0.86000
O1010       O  0.76376823  0.67304866  0.70868778    -0.83000
C1011       C  0.73198951  0.62486004  0.70748781     0.97500
O1012       O  0.73719014  0.59458195  0.72670883    -0.83100
O1013       O  0.82758104  0.59433727  0.70872808    -0.85700
C1014       C  0.87586337  0.61165369  0.70477425     1.02000
O1015       O  0.90903925  0.64733149  0.72281168    -0.78500
O1016       O  0.90753228  0.73638757  0.70683704    -0.78700
C1017       C  0.88858165  0.76605505  0.70304786     1.01900
O1018       O  0.83624480  0.74275225  0.79048401    -0.86000
O1019       O  0.74201595  0.65638518  0.77664516    -0.83100
C1020       C  0.73764334  0.62152803  0.79609159     0.97500
O1021       O  0.76692477  0.60184434  0.79309961    -0.83100
O1022       O  0.85177944  0.59169372  0.77503939    -0.85700
C1023       C  0.88809230  0.62215881  0.79371298     1.02000
O1024       O  0.90775172  0.67071362  0.79057951    -0.78500
O1025       O  0.91497083  0.76462413  0.77397070    -0.78700
C1026       C  0.88498375  0.77120791  0.79303410     1.01900
Cr1027     Cr  0.80195831  0.70633796  0.74955369     1.93700
Cr1028     Cr  0.79879129  0.60120897  0.75076965     1.93200
Cr1029     Cr  0.90428063  0.70218720  0.74869930     1.39100
O1030       O  0.83508434  0.66997927  0.74951103    -1.23800
C1031       C  0.00104397  0.50150272  0.57209159     0.85800
C1032       C  0.55382448  0.52834058  0.58968458    -0.54400
C1033       C  0.55038277  0.52521990  0.62282120     0.08800
C1034       C  0.99407568  0.49364653  0.63520864     0.19700
C1035       C  0.97542831  0.94483125  0.58457292    -0.55100
C1036       C  0.97202250  0.94094589  0.61741671     0.08900
C1037       C  0.96945359  0.52463211  0.58757846    -0.54700
C1038       C  0.96556192  0.52036991  0.62051790     0.09400
H1039       H  0.59121239  0.54655508  0.57742592     0.13900
H1040       H  0.99020052  0.49048733  0.66195762    -0.00300
H1041       H  0.96252389  0.91088049  0.56904058     0.14300
H1042       H  0.95188847  0.54307386  0.57361450     0.14000
C1043       C  0.00240126  0.50391145  0.92873004     0.85800
C1044       C  0.97900236  0.94918706  0.91285482    -0.54400
C1045       C  0.97884978  0.94955667  0.87973641     0.08800
C1046       C  0.00325287  0.50464711  0.86543002     0.19700
C1047       C  0.55752654  0.53326652  0.91352871    -0.55100
C1048       C  0.55756665  0.53416734  0.88047823     0.08900
C1049       C  0.97221235  0.52874345  0.91363921    -0.54700
C1050       C  0.97249465  0.52885268  0.88054664     0.09400
H1051       H  0.96503958  0.91343803  0.92643048     0.13900
H1052       H  0.00356197  0.50502871  0.83851127    -0.00300
H1053       H  0.59361786  0.55102194  0.92728715     0.14300
H1054       H  0.95239909  0.54478989  0.92790791     0.14000
C1055       C  0.95800969  0.96723896  0.51737323    -0.27000
C1056       C  0.00179253  0.50527121  0.53499507    -0.15000
C1057       C  0.53989666  0.54789848  0.51750174     0.35600
C1058       C  0.54024534  0.54626222  0.98336707    -0.26400
C1059       C  0.00069079  0.50445084  0.96589213    -0.15700
C1060       C  0.95695876  0.96727927  0.98334865     0.36700
N1061       N  0.91039265  0.93010887  0.96699800    -0.89900
H1062       H  0.92416675  0.93775174  0.53004749     0.17800
H1063       H  0.57034424  0.57930034  0.97058654     0.17800
N1064       N  0.57753813  0.59416159  0.53411889    -0.88900
H1065       H  0.87961391  0.93543183  0.97496657     0.35200
H1066       H  0.90231916  0.89288266  0.97387006     0.40300
H1067       H  0.55716887  0.61017575  0.54582246     0.39900
H1068       H  0.60293286  0.62208057  0.51771496     0.34800
C1069       C  0.87965996  0.53528478  0.68384435    -0.27000
C1070       C  0.89449777  0.58783501  0.68061863    -0.15000
C1071       C  0.93123738  0.61805824  0.65677893     0.35600
C1072       C  0.95267063  0.59483204  0.63656725    -0.26400
C1073       C  0.93904820  0.54246120  0.64048646    -0.15700
C1074       C  0.90211579  0.51261466  0.66432694     0.36700
N1075       N  0.88833125  0.95947319  0.67004526    -0.89900
H1076       H  0.85202743  0.51220174  0.70250998     0.17800
H1077       H  0.47919444  0.61700147  0.61760337     0.17800
N1078       N  0.94713163  0.67226913  0.65362036    -0.88900
H1079       H  0.84787313  0.93685592  0.66738011     0.35200
H1080       H  0.89773904  0.95565639  0.69394153     0.40300
H1081       H  0.91439605  0.67484118  0.64658762     0.39900
H1082       H  0.97464603  0.68908288  0.63507282     0.34800
C1083       C  0.64466393  0.55246920  0.69292414    -0.27000
C1084       C  0.68611941  0.60202818  0.68526174    -0.15000
C1085       C  0.68221056  0.62654362  0.65681778     0.35600
C1086       C  0.63803855  0.60071254  0.63683112    -0.26400
C1087       C  0.59696389  0.55081502  0.64451335    -0.15700
C1088       C  0.60075848  0.52676961  0.67300855     0.36700
N1089       N  0.56121496  0.97553336  0.68188526    -0.89900
H1090       H  0.64616688  0.53280257  0.71465856     0.17800
H1091       H  0.63554292  0.62024048  0.61530952     0.17800
N1092       N  0.72224229  0.67718348  0.64736496    -0.88900
H1093       H  0.54648485  0.97753767  0.70462402     0.35200
H1094       H  0.57874293  0.95239597  0.68424095     0.40300
H1095       H  0.75741966  0.67679678  0.64522351     0.39900
H1096       H  0.72584713  0.70364626  0.66545821     0.34800
C1097       C  0.89734902  0.86660823  0.64305784    -0.27000
C1098       C  0.94997250  0.89082377  0.63447221    -0.15000
C1099       C  0.98072765  0.86861876  0.64419066     0.35600
C1100       C  0.95942206  0.82643502  0.66568708    -0.26400
C1101       C  0.90785781  0.80533798  0.67691148    -0.15700
C1102       C  0.87608798  0.82444027  0.66430206     0.34800
N1103       N  0.82217625  0.80135272  0.67309486    -0.89900
H1104       H  0.87278233  0.88128864  0.63376106     0.17800
H1105       H  0.98392544  0.81129351  0.67446772     0.17800
N1106       N  0.53411367  0.88874132  0.63372888    -0.88900
H1107       H  0.80009095  0.78940245  0.65177644     0.35200
H1108       H  0.81624950  0.83003086  0.68402591     0.40300
H1109       H  0.54551926  0.91955935  0.61763996     0.39900
H1110       H  0.53574489  0.85905742  0.62076012     0.34800
C1111       C  0.95960357  0.60350822  0.86539108    -0.27000
C1112       C  0.94717772  0.55160271  0.86052500    -0.15000
C1113       C  0.91410036  0.52299245  0.83480058     0.35600
C1114       C  0.89493848  0.54674435  0.81390969    -0.26400
C1115       C  0.90832699  0.59923646  0.81788238    -0.15700
C1116       C  0.94074242  0.62783487  0.84423262     0.36700
N1117       N  0.95485458  0.68132788  0.84929422    -0.89900
H1118       H  0.48682055  0.62574970  0.88456157     0.17800
H1119       H  0.87004869  0.52384202  0.79402690     0.17800
N1120       N  0.89796115  0.96895376  0.83052168    -0.88900
H1121       H  0.48290640  0.69765680  0.86795647     0.35200
H1122       H  0.92083618  0.68227543  0.85531441     0.40300
H1123       H  0.90922561  0.96435023  0.80721059     0.39900
H1124       H  0.85727229  0.94720913  0.83185353     0.34800
C1125       C  0.64283753  0.54316285  0.86382738    -0.27000
C1126       C  0.60588261  0.55975089  0.86094637    -0.15000
C1127       C  0.61509651  0.59980157  0.83905116     0.35600
C1128       C  0.65933125  0.62049675  0.81942705    -0.26400
C1129       C  0.69513422  0.60202633  0.82066634    -0.15700
C1130       C  0.68746129  0.56378737  0.84390158     0.36700
N1131       N  0.72423759  0.54542243  0.84695369    -0.89900
H1132       H  0.63608601  0.51301398  0.88112164     0.17800
H1133       H  0.66475584  0.65051710  0.80238495     0.17800
N1134       N  0.58084378  0.62107339  0.83655295    -0.88900
H1135       H  0.71195196  0.51643323  0.86456796     0.35200
H1136       H  0.75930072  0.57650275  0.85538464     0.40300
H1137       H  0.57600341  0.63291250  0.85963429     0.39900
H1138       H  0.54474250  0.59242823  0.82783253     0.34800
C1139       C  0.95971437  0.85494404  0.81153834    -0.27000
C1140       C  0.90832065  0.81475534  0.81700057    -0.15000
C1141       C  0.88148288  0.81792713  0.84480416     0.35600
C1142       C  0.90604187  0.86102106  0.86568042    -0.26400
C1143       C  0.95660161  0.90178062  0.85934083    -0.15700
C1144       C  0.98405784  0.89817208  0.83232952     0.36700
N1145       N  0.53719436  0.93888683  0.82610938    -0.89900
H1146       H  0.98107347  0.85314189  0.79059907     0.17800
H1147       H  0.88470463  0.86355958  0.88642279     0.17800
N1148       N  0.82954573  0.77831480  0.85265327    -0.88900
H1149       H  0.55170018  0.93092242  0.80495720     0.35200
H1150       H  0.56025496  0.93850151  0.84521448     0.40300
H1151       H  0.82884775  0.74268917  0.85422555     0.39900
H1152       H  0.80426983  0.77632759  0.83427124     0.34800
loop_ 
_geom_bond_atom_site_label_1 
_geom_bond_atom_site_label_2 
_geom_bond_distance 
_geom_bond_site_symmetry_2 
_ccdc_geom_bond_type 
O1          Cr19   1.997       .  S
O1            C9   1.264       .  A
O2          Cr19   1.992       .  S
O2            C3   1.262       .  A
C3            O4   1.263       .  A
C3           C76   1.489       .  S
O4          Cr20   1.991       .  S
O5          Cr20   1.981       .  S
O5            C6   1.262       .  A
C6            O7   1.264       .  A
C6           C62   1.470       .  S
O7          Cr21   1.998       .  S
O8          Cr21   1.983       .  S
O8            C9   1.261       .  A
C9           C93   1.481       .  S
O10         Cr19   1.985       .  S
O10          C18   1.260       .  A
O11         Cr19   1.997       .  S
O11          C12   1.265       .  A
C12          O13   1.262       .  A
C12         C121   1.489       .  S
O13         Cr20   1.985       .  S
O14         Cr20   1.990       .  S
O14          C15   1.262       .  A
C15          O16   1.263       .  A
C15         C107   1.489       .  S
O16         Cr21   1.992       .  S
O17         Cr21   2.000       .  S
O17          C18   1.265       .  A
C18         C132   1.490       .  S
Cr19         O22   1.773       .  S
Cr20         O22   1.771       .  S
Cr21         O22   1.775       .  S
C23          C29   1.536       .  S
C23         C600   1.547       .  S
C23         C315   1.544   1_545  S
C23          C48   1.533       .  S
C24         C599   1.547       .  S
C24          H31   1.083       .  S
C24          C25   1.370       .  D
C25         C602   1.540   1_445  S
C25          C79   1.493       .  S
C26          C30   1.536   1_565  S
C26         C601   1.541   1_565  S
C26         C316   1.536       .  S
C26          H32   1.108       .  S
C27         C311   1.544       .  S
C27          H33   1.086       .  S
C27          C28   1.359       .  D
C28         C314   1.536       .  S
C28          C90   1.474       .  S
C29          H34   1.086       .  S
C29          C30   1.364       .  D
C30          C65   1.486       .  S
C35          C41   1.539       .  S
C35         C324   1.547   1_545  S
C35         C615   1.547       .  S
C35          C51   1.533       .  S
C36         C323   1.547       .  S
C36          H43   1.085       .  S
C36          C37   1.366       .  D
C37         C326   1.535       .  S
C37         C135   1.486       .  S
C38          C42   1.534       .  S
C38         C325   1.535   1_545  S
C38         C616   1.533       .  S
C38          H44   1.110       .  S
C39         C611   1.547       .  S
C39          H45   1.085       .  S
C39          C40   1.363       .  D
C40         C614   1.532       .  S
C40         C118   1.479       .  S
C41          H46   1.086       .  S
C41          C42   1.364       .  D
C42         C104   1.481       .  S
C47          H54   1.083       .  S
C47         C336   1.409       .  A
C47         C196   1.401   1_554  A
C48         C335   1.409   1_545  A
C48         C625   1.418       .  A
C49         C624   1.418       .  A
C49         C194   1.408   1_554  A
C49          N56   1.437       .  S
C50          H55   1.080       .  S
C50         C193   1.407       .  A
C50         C627   1.409       .  A
C51         C626   1.409       .  A
C51         C340   1.414   1_545  A
C52         C191   1.401       .  A
C52         C339   1.413       .  A
C52          N53   1.433       .  S
N53          H57   1.046       .  S
N53          H58   1.046       .  S
N56          H59   1.046       .  S
N56          H60   1.045       .  S
C61          H68   1.084       .  S
C61          C62   1.398       .  A
C61          C66   1.401       .  A
C62          C63   1.410       .  A
C63          C64   1.408       .  A
C63          N70   1.438       .  S
C64         H645   1.084       .  S
C64          C65   1.405       .  A
C65          C66   1.410       .  A
C66         N355   1.429   1_545  S
N67         C354   1.429       .  S
N67          H71   1.046       .  S
N67          H72   1.046       .  S
H69         C640   1.084       .  S
N70          H73   1.046       .  S
N70          H74   1.045       .  S
C75          H82   1.084       .  S
C75          C76   1.406       .  A
C75          C80   1.397       .  A
C76          C77   1.416       .  A
C77          C78   1.404       .  A
C77          N84   1.431       .  S
C78          H83   1.084       .  S
C78          C79   1.408       .  A
C79          C80   1.410       .  A
C80         N369   1.431   1_545  S
N81         C368   1.431       .  S
N81          H85   1.046       .  S
N81          H86   1.046       .  S
N84          H87   1.045       .  S
N84          H88   1.044       .  S
C89          H96   1.083       .  S
C89          C90   1.395       .  A
C89          C94   1.398       .  A
C90          C91   1.416       .  A
C91          C92   1.405       .  A
C91         N674   1.438       .  S
C92          H97   1.084       .  S
C92          C93   1.406       .  A
C93          C94   1.411       .  A
C94          N95   1.432       .  S
N95          H99   1.046       .  S
N95         H100   1.045       .  S
N98         C667   1.438   1_455  S
N98         H101   1.043       .  S
N98         H102   1.046       .  S
C103        H686   1.083       .  S
C103        C104   1.404       .  A
C103        C108   1.411       .  A
C104        C105   1.403       .  A
C105        C106   1.398       .  A
C105        N400   1.433   1_545  S
C106        H111   1.084       .  S
C106        C107   1.409       .  A
C107        C108   1.416       .  A
C108        N109   1.437       .  S
N109        H114   1.046       .  S
N109        H689   1.045       .  S
H110        C679   1.084       .  S
N112        C393   1.433       .  S
N112        H115   1.046       .  S
N112        H116   1.046       .  S
H113        N685   1.046       .  S
C117        H124   1.084       .  S
C117        C118   1.403       .  A
C117        C122   1.409       .  A
C118        C119   1.409       .  A
C119        C120   1.394       .  A
C119        N126   1.433       .  S
C120        H125   1.083       .  S
C120        C121   1.408       .  A
C121        C122   1.417       .  A
C122        N123   1.437       .  S
N123        H127   1.045       .  S
N123        H128   1.046       .  S
N126        H129   1.045       .  S
N126        H130   1.043       .  S
C131        H138   1.083       .  S
C131        C132   1.407       .  A
C131        C136   1.403       .  A
C132        C133   1.419       .  A
C133        C134   1.403       .  A
C133        N140   1.432       .  S
C134        H139   1.084       .  S
C134        C135   1.404       .  A
C135        C136   1.409       .  A
C136        N713   1.437       .  S
N137        C712   1.437   1_455  S
N137        H141   1.045       .  S
N137        H142   1.045       .  S
N140        H143   1.046       .  S
N140        H144   1.045       .  S
O145       Cr163   1.996       .  S
O145        C153   1.264       .  A
O146       Cr163   1.992       .  S
O146        C147   1.262       .  A
C147        O148   1.264       .  A
C147        C220   1.490       .  S
O148       Cr164   1.993       .  S
O149       Cr164   1.981       .  S
O149        C150   1.262       .  A
C150        O151   1.264       .  A
C150        C206   1.469       .  S
O151       Cr165   1.997       .  S
O152       Cr165   1.984       .  S
O152        C153   1.261       .  A
C153        C237   1.481       .  S
O154       Cr163   1.985       .  S
O154        C162   1.260       .  A
O155       Cr163   1.996       .  S
O155        C156   1.265       .  A
C156        O157   1.262       .  A
C156        C265   1.489       .  S
O157       Cr164   1.984       .  S
O158       Cr164   1.990       .  S
O158        C159   1.262       .  A
C159        O160   1.263       .  A
C159        C251   1.489       .  S
O160       Cr165   1.993       .  S
O161       Cr165   1.999       .  S
O161        C162   1.265       .  A
C162        C276   1.490       .  S
Cr163       O166   1.773       .  S
Cr164       O166   1.771       .  S
Cr165       O166   1.774       .  S
C167        C744   1.547       .  S
C167        C173   1.537       .  S
C167        C459   1.544   1_545  S
C167        C192   1.534       .  S
C168        C743   1.547       .  S
C168        H175   1.083       .  S
C168        C169   1.369       .  D
C169        C746   1.540   1_445  S
C169        C223   1.493       .  S
C170        C745   1.540   1_565  S
C170        C174   1.536   1_565  S
C170        C460   1.536       .  S
C170        H176   1.108       .  S
C171        C455   1.544       .  S
C171        H177   1.086       .  S
C171        C172   1.359       .  D
C172        C458   1.536       .  S
C172        C234   1.474       .  S
C173        H178   1.086       .  S
C173        C174   1.364       .  D
C174        C209   1.486       .  S
C179        C468   1.547   1_545  S
C179        C185   1.539       .  S
C179        C759   1.547       .  S
C179        C195   1.533       .  S
C180        C467   1.547       .  S
C180        H187   1.085       .  S
C180        C181   1.365       .  D
C181        C470   1.534       .  S
C181        C279   1.485       .  S
C182        C469   1.535   1_545  S
C182        C186   1.534       .  S
C182        C760   1.532       .  S
C182        H188   1.110       .  S
C183        C755   1.547       .  S
C183        H189   1.085       .  S
C183        C184   1.363       .  D
C184        C758   1.532       .  S
C184        C262   1.479       .  S
C185        H190   1.086       .  S
C185        C186   1.364       .  D
C186        C248   1.481       .  S
C191        H198   1.083       .  S
C191        C480   1.409       .  A
C192        C479   1.409   1_545  A
C192        C769   1.418       .  A
C193        C768   1.417       .  A
C193        N200   1.437       .  S
C194        H199   1.081       .  S
C194        C771   1.410       .  A
C195        C770   1.410       .  A
C195        C484   1.413   1_545  A
C196        C483   1.413       .  A
C196        N197   1.433       .  S
N197        H201   1.046       .  S
N197        H202   1.046       .  S
N200        H203   1.045       .  S
N200        H204   1.046       .  S
C205        H212   1.084       .  S
C205        C206   1.398       .  A
C205        C210   1.401       .  A
C206        C207   1.410       .  A
C207        C208   1.408       .  A
C207        N214   1.438       .  S
C208        H789   1.084       .  S
C208        C209   1.405       .  A
C209        C210   1.409       .  A
C210        N499   1.429   1_545  S
N211        C498   1.429       .  S
N211        H215   1.046       .  S
N211        H216   1.046       .  S
H213        C784   1.084       .  S
N214        H217   1.046       .  S
N214        H218   1.046       .  S
C219        H226   1.084       .  S
C219        C220   1.406       .  A
C219        C224   1.397       .  A
C220        C221   1.417       .  A
C221        C222   1.405       .  A
C221        N228   1.431       .  S
C222        H227   1.084       .  S
C222        C223   1.408       .  A
C223        C224   1.409       .  A
C224        N513   1.431   1_545  S
N225        C512   1.431       .  S
N225        H229   1.046       .  S
N225        H230   1.046       .  S
N228        H231   1.045       .  S
N228        H232   1.045       .  S
C233        H240   1.083       .  S
C233        C234   1.395       .  A
C233        C238   1.398       .  A
C234        C235   1.416       .  A
C235        C236   1.405       .  A
C235        N818   1.438       .  S
C236        H241   1.084       .  S
C236        C237   1.406       .  A
C237        C238   1.412       .  A
C238        N239   1.432       .  S
N239        H243   1.045       .  S
N239        H244   1.046       .  S
N242        C811   1.438   1_455  S
N242        H245   1.043       .  S
N242        H246   1.046       .  S
C247        H830   1.084       .  S
C247        C248   1.404       .  A
C247        C252   1.411       .  A
C248        C249   1.403       .  A
C249        C250   1.398       .  A
C249        N544   1.433   1_545  S
C250        H255   1.084       .  S
C250        C251   1.409       .  A
C251        C252   1.416       .  A
C252        N253   1.437       .  S
N253        H833   1.046       .  S
N253        H258   1.046       .  S
H254        C823   1.083       .  S
N256        C537   1.433       .  S
N256        H259   1.046       .  S
N256        H260   1.045       .  S
H257        N829   1.046       .  S
C261        H268   1.084       .  S
C261        C262   1.403       .  A
C261        C266   1.409       .  A
C262        C263   1.409       .  A
C263        C264   1.393       .  A
C263        N270   1.432       .  S
C264        H269   1.084       .  S
C264        C265   1.408       .  A
C265        C266   1.416       .  A
C266        N267   1.437       .  S
N267        H271   1.046       .  S
N267        H272   1.046       .  S
N270        H273   1.045       .  S
N270        H274   1.043       .  S
C275        H282   1.083       .  S
C275        C276   1.408       .  A
C275        C280   1.403       .  A
C276        C277   1.419       .  A
C277        C278   1.403       .  A
C277        N284   1.432       .  S
C278        H283   1.084       .  S
C278        C279   1.404       .  A
C279        C280   1.409       .  A
C280        N857   1.437       .  S
N281        C856   1.437   1_455  S
N281        H285   1.045       .  S
N281        H286   1.046       .  S
N284        H287   1.046       .  S
N284        H288   1.044       .  S
O289       Cr307   1.996       .  S
O289        C297   1.264       .  A
O290       Cr307   1.993       .  S
O290        C291   1.262       .  A
C291        O292   1.264       .  A
C291        C364   1.490       .  S
O292       Cr308   1.993       .  S
O293       Cr308   1.981       .  S
O293        C294   1.262       .  A
C294        O295   1.264       .  A
C294        C350   1.470       .  S
O295       Cr309   1.999       .  S
O296       Cr309   1.984       .  S
O296        C297   1.261       .  A
C297        C381   1.481       .  S
O298       Cr307   1.985       .  S
O298        C306   1.260       .  A
O299       Cr307   1.997       .  S
O299        C300   1.265       .  A
C300        O301   1.262       .  A
C300        C409   1.489       .  S
O301       Cr308   1.984       .  S
O302       Cr308   1.989       .  S
O302        C303   1.262       .  A
C303        O304   1.263       .  A
C303        C395   1.489       .  S
O304       Cr309   1.993       .  S
O305       Cr309   2.000       .  S
O305        C306   1.265       .  A
C306        C420   1.491       .  S
Cr307       O310   1.773       .  S
Cr308       O310   1.771       .  S
Cr309       O310   1.775       .  S
C311        C888   1.547       .  S
C311        C317   1.537       .  S
C311        C336   1.534       .  S
C312        C887   1.547       .  S
C312        H319   1.083       .  S
C312        C313   1.370       .  D
C313        C890   1.540   1_455  S
C313        C367   1.493       .  S
C314        C889   1.540       .  S
C314        C318   1.536       .  S
C314        H320   1.108       .  S
C315        H321   1.086       .  S
C315        C316   1.359       .  D
C316        C378   1.474       .  S
C317        H322   1.086       .  S
C317        C318   1.364       .  D
C318        C353   1.487       .  S
C323        C329   1.539       .  S
C323        C903   1.547       .  S
C323        C339   1.533       .  S
C324        H331   1.085       .  S
C324        C325   1.365       .  D
C325        C423   1.485       .  S
C326        C330   1.534       .  S
C326        C904   1.532       .  S
C326        H332   1.110       .  S
C327        C899   1.547       .  S
C327        H333   1.085       .  S
C327        C328   1.363       .  D
C328        C902   1.532       .  S
C328        C406   1.479       .  S
C329        H334   1.086       .  S
C329        C330   1.364       .  D
C330        C392   1.481       .  S
C335        H342   1.083       .  S
C335        C484   1.401   1_554  A
C336        C913   1.417       .  A
C337        C912   1.418       .  A
C337        C482   1.407   1_554  A
C337        N344   1.437       .  S
C338        H343   1.080       .  S
C338        C481   1.407       .  A
C338        C915   1.410       .  A
C339        C914   1.410       .  A
C340        C479   1.401       .  A
C340        N341   1.433       .  S
N341        H345   1.046       .  S
N341        H346   1.046       .  S
N344        H347   1.045       .  S
N344        H348   1.046       .  S
C349        H356   1.084       .  S
C349        C350   1.398       .  A
C349        C354   1.401       .  A
C350        C351   1.409       .  A
C351        C352   1.408       .  A
C351        N358   1.438       .  S
C352        H933   1.084       .  S
C352        C353   1.405       .  A
C353        C354   1.410       .  A
N355        H359   1.046       .  S
N355        H360   1.046       .  S
H357        C928   1.084       .  S
N358        H361   1.046       .  S
N358        H362   1.046       .  S
C363        H370   1.084       .  S
C363        C364   1.406       .  A
C363        C368   1.397       .  A
C364        C365   1.417       .  A
C365        C366   1.404       .  A
C365        N372   1.431       .  S
C366        H371   1.084       .  S
C366        C367   1.408       .  A
C367        C368   1.410       .  A
N369        H373   1.046       .  S
N369        H374   1.046       .  S
N372        H375   1.045       .  S
N372        H376   1.045       .  S
C377        H384   1.083       .  S
C377        C378   1.395       .  A
C377        C382   1.398       .  A
C378        C379   1.416       .  A
C379        C380   1.405       .  A
C379        N962   1.438       .  S
C380        H385   1.084       .  S
C380        C381   1.406       .  A
C381        C382   1.412       .  A
C382        N383   1.432       .  S
N383        H387   1.045       .  S
N383        H388   1.046       .  S
N386        C955   1.438   1_455  S
N386        H389   1.043       .  S
N386        H390   1.046       .  S
C391        H974   1.083       .  S
C391        C392   1.404       .  A
C391        C396   1.411       .  A
C392        C393   1.404       .  A
C393        C394   1.398       .  A
C394        H399   1.084       .  S
C394        C395   1.409       .  A
C395        C396   1.416       .  A
C396        N397   1.437       .  S
N397        H977   1.046       .  S
N397        H402   1.046       .  S
H398        C967   1.083       .  S
N400        H403   1.045       .  S
N400        H404   1.046       .  S
H401        N973   1.045       .  S
C405        H412   1.084       .  S
C405        C406   1.403       .  A
C405        C410   1.409       .  A
C406        C407   1.409       .  A
C407        C408   1.393       .  A
C407        N414   1.432       .  S
C408        H413   1.084       .  S
C408        C409   1.408       .  A
C409        C410   1.417       .  A
C410        N411   1.437       .  S
N411        H415   1.046       .  S
N411        H416   1.046       .  S
N414        H417   1.045       .  S
N414        H418   1.043       .  S
C419        H426   1.083       .  S
C419        C420   1.408       .  A
C419        C424   1.403       .  A
C420        C421   1.420       .  A
C421        C422   1.403       .  A
C421        N428   1.432       .  S
C422        H427   1.084       .  S
C422        C423   1.404       .  A
C423        C424   1.409       .  A
C424       N1001   1.437       .  S
N425       C1000   1.437   1_455  S
N425        H429   1.045       .  S
N425        H430   1.046       .  S
N428        H431   1.046       .  S
N428        H432   1.044       .  S
O433       Cr451   1.996       .  S
O433        C441   1.264       .  A
O434       Cr451   1.992       .  S
O434        C435   1.262       .  A
C435        O436   1.263       .  A
C435        C508   1.490       .  S
O436       Cr452   1.992       .  S
O437       Cr452   1.981       .  S
O437        C438   1.262       .  A
C438        O439   1.264       .  A
C438        C494   1.469       .  S
O439       Cr453   1.998       .  S
O440       Cr453   1.984       .  S
O440        C441   1.261       .  A
C441        C525   1.481       .  S
O442       Cr451   1.985       .  S
O442        C450   1.260       .  A
O443       Cr451   1.997       .  S
O443        C444   1.265       .  A
C444        O445   1.262       .  A
C444        C553   1.489       .  S
O445       Cr452   1.984       .  S
O446       Cr452   1.990       .  S
O446        C447   1.262       .  A
C447        O448   1.263       .  A
C447        C539   1.489       .  S
O448       Cr453   1.993       .  S
O449       Cr453   2.000       .  S
O449        C450   1.265       .  A
C450        C564   1.490       .  S
Cr451       O454   1.773       .  S
Cr452       O454   1.771       .  S
Cr453       O454   1.775       .  S
C455       C1032   1.547       .  S
C455        C461   1.536       .  S
C455        C480   1.533       .  S
C456       C1031   1.547       .  S
C456        H463   1.083       .  S
C456        C457   1.370       .  D
C457       C1034   1.540   1_455  S
C457        C511   1.493       .  S
C458       C1033   1.540       .  S
C458        C462   1.536       .  S
C458        H464   1.108       .  S
C459        H465   1.086       .  S
C459        C460   1.359       .  D
C460        C522   1.475       .  S
C461        H466   1.086       .  S
C461        C462   1.364       .  D
C462        C497   1.487       .  S
C467        C473   1.539       .  S
C467       C1047   1.547       .  S
C467        C483   1.533       .  S
C468        H475   1.085       .  S
C468        C469   1.365       .  D
C469        C567   1.486       .  S
C470        C474   1.534       .  S
C470       C1048   1.533       .  S
C470        H476   1.110       .  S
C471       C1043   1.547       .  S
C471        H477   1.085       .  S
C471        C472   1.363       .  D
C472       C1046   1.532       .  S
C472        C550   1.479       .  S
C473        H478   1.086       .  S
C473        C474   1.364       .  D
C474        C536   1.480       .  S
C479        H486   1.083       .  S
C480       C1057   1.417       .  A
C481       C1056   1.417       .  A
C481        N488   1.437       .  S
C482        H487   1.081       .  S
C482       C1059   1.409       .  A
C483       C1058   1.410       .  A
C484        N485   1.433       .  S
N485        H489   1.046       .  S
N485        H490   1.046       .  S
N488        H491   1.046       .  S
N488        H492   1.045       .  S
C493        H500   1.084       .  S
C493        C494   1.398       .  A
C493        C498   1.401       .  A
C494        C495   1.409       .  A
C495        C496   1.408       .  A
C495        N502   1.438       .  S
C496       H1077   1.084       .  S
C496        C497   1.406       .  A
C497        C498   1.410       .  A
N499        H503   1.046       .  S
N499        H504   1.046       .  S
H501       C1072   1.084       .  S
N502        H505   1.046       .  S
N502        H506   1.045       .  S
C507        H514   1.084       .  S
C507        C508   1.406       .  A
C507        C512   1.397       .  A
C508        C509   1.416       .  A
C509        C510   1.404       .  A
C509        N516   1.431       .  S
C510        H515   1.084       .  S
C510        C511   1.408       .  A
C511        C512   1.410       .  A
N513        H517   1.045       .  S
N513        H518   1.046       .  S
N516        H519   1.046       .  S
N516        H520   1.044       .  S
C521        H528   1.083       .  S
C521        C522   1.395       .  A
C521        C526   1.398       .  A
C522        C523   1.416       .  A
C523        C524   1.405       .  A
C523       N1106   1.438       .  S
C524        H529   1.084       .  S
C524        C525   1.405       .  A
C525        C526   1.411       .  A
C526        N527   1.432       .  S
N527        H531   1.045       .  S
N527        H532   1.046       .  S
N530       C1099   1.438   1_455  S
N530        H533   1.043       .  S
N530        H534   1.046       .  S
C535       H1118   1.083       .  S
C535        C536   1.404       .  A
C535        C540   1.411       .  A
C536        C537   1.403       .  A
C537        C538   1.398       .  A
C538        H543   1.084       .  S
C538        C539   1.409       .  A
C539        C540   1.416       .  A
C540        N541   1.437       .  S
N541       H1121   1.045       .  S
N541        H546   1.046       .  S
H542       C1111   1.083       .  S
N544        H547   1.046       .  S
N544        H548   1.046       .  S
H545       N1117   1.046       .  S
C549        H556   1.084       .  S
C549        C550   1.403       .  A
C549        C554   1.409       .  A
C550        C551   1.409       .  A
C551        C552   1.394       .  A
C551        N558   1.432       .  S
C552        H557   1.084       .  S
C552        C553   1.408       .  A
C553        C554   1.417       .  A
C554        N555   1.437       .  S
N555        H559   1.045       .  S
N555        H560   1.046       .  S
N558        H561   1.046       .  S
N558        H562   1.043       .  S
C563        H570   1.083       .  S
C563        C564   1.408       .  A
C563        C568   1.403       .  A
C564        C565   1.419       .  A
C565        C566   1.403       .  A
C565        N572   1.432       .  S
C566        H571   1.084       .  S
C566        C567   1.404       .  A
C567        C568   1.409       .  A
C568       N1145   1.437       .  S
N569       C1144   1.437   1_455  S
N569        H573   1.045       .  S
N569        H574   1.046       .  S
N572        H575   1.046       .  S
N572        H576   1.044       .  S
O577       Cr595   1.995       .  S
O577        C585   1.264       .  A
O578       Cr595   1.993       .  S
O578        C579   1.262       .  A
C579        O580   1.264       .  A
C579        C652   1.490       .  S
O580       Cr596   1.992       .  S
O581       Cr596   1.980       .  S
O581        C582   1.262       .  A
C582        O583   1.264       .  A
C582        C638   1.469       .  S
O583       Cr597   1.998       .  S
O584       Cr597   1.984       .  S
O584        C585   1.261       .  A
C585        C669   1.481       .  S
O586       Cr595   1.985       .  S
O586        C594   1.261       .  A
O587       Cr595   1.996       .  S
O587        C588   1.265       .  A
C588        O589   1.262       .  A
C588        C697   1.488       .  S
O589       Cr596   1.984       .  S
O590       Cr596   1.989       .  S
O590        C591   1.262       .  A
C591        O592   1.263       .  A
C591        C683   1.489       .  S
O592       Cr597   1.993       .  S
O593       Cr597   1.999       .  S
O593        C594   1.265       .  A
C594        C708   1.491       .  S
Cr595       O598   1.773       .  S
Cr596       O598   1.771       .  S
Cr597       O598   1.774       .  S
C599        C605   1.537   1_455  S
C599        C891   1.544   1_445  S
C599        C624   1.534       .  S
C600        H607   1.083       .  S
C600        C601   1.370       .  D
C601        C655   1.493       .  S
C602        C606   1.536   1_565  S
C602        C892   1.536       .  S
C602        H608   1.108       .  S
C603        C887   1.544   1_655  S
C603        H609   1.086       .  S
C603        C604   1.359       .  D
C604        C890   1.536       .  S
C604        C666   1.474       .  S
C605        H610   1.086       .  S
C605        C606   1.364       .  D
C606        C641   1.487       .  S
C611        C900   1.547   1_445  S
C611        C617   1.539   1_455  S
C611        C627   1.532       .  S
C612        C899   1.547   1_655  S
C612        H619   1.085       .  S
C612        C613   1.365       .  D
C613        C902   1.535   1_655  S
C613        C711   1.486       .  S
C614        C901   1.535   1_445  S
C614        C618   1.534   1_455  S
C614        H620   1.110       .  S
C615        H621   1.085       .  S
C615        C616   1.363       .  D
C616        C694   1.479       .  S
C617        H622   1.086       .  S
C617        C618   1.364       .  D
C618        C680   1.481       .  S
C623        H630   1.083       .  S
C623        C912   1.409   1_655  A
C623        C772   1.401   1_554  A
C624        C911   1.408   1_445  A
C625        C770   1.407   1_554  A
C625        N632   1.437       .  S
C626        H631   1.080       .  S
C626        C769   1.407       .  A
C627        C916   1.413   1_445  A
C628        C767   1.401       .  A
C628        C915   1.413   1_655  A
C628        N629   1.433       .  S
N629        H633   1.046       .  S
N629        H634   1.046       .  S
N632        H635   1.045       .  S
N632        H636   1.046       .  S
C637        H644   1.084       .  S
C637        C638   1.398       .  A
C637        C642   1.401       .  A
C638        C639   1.409       .  A
C639        C640   1.408       .  A
C639        N646   1.438       .  S
C640        C641   1.405       .  A
C641        C642   1.410       .  A
C642        N931   1.429   1_545  S
N643        C930   1.429       .  S
N643        H647   1.046       .  S
N643        H648   1.046       .  S
N646        H649   1.046       .  S
N646        H650   1.046       .  S
C651        H658   1.084       .  S
C651        C652   1.406       .  A
C651        C656   1.397       .  A
C652        C653   1.416       .  A
C653        C654   1.404       .  A
C653        N660   1.431       .  S
C654        H659   1.084       .  S
C654        C655   1.408       .  A
C655        C656   1.410       .  A
C656        N945   1.431   1_545  S
N657        C944   1.431       .  S
N657        H661   1.046       .  S
N657        H662   1.046       .  S
N660        H663   1.046       .  S
N660        H664   1.044       .  S
C665        H672   1.083       .  S
C665        C666   1.395       .  A
C665        C670   1.398       .  A
C666        C667   1.416       .  A
C667        C668   1.405       .  A
C668        H673   1.084       .  S
C668        C669   1.406       .  A
C669        C670   1.412       .  A
C670        N671   1.432       .  S
N671        H675   1.045       .  S
N671        H676   1.046       .  S
N674        H677   1.043       .  S
N674        H678   1.046       .  S
C679        C680   1.404       .  A
C679        C684   1.411       .  A
C680        C681   1.404       .  A
C681        C682   1.398       .  A
C681        N976   1.433   1_545  S
C682        H687   1.084       .  S
C682        C683   1.409       .  A
C683        C684   1.415       .  A
C684        N685   1.437       .  S
N685        H690   1.045       .  S
N688        C969   1.433       .  S
N688        H691   1.046       .  S
N688        H692   1.045       .  S
C693        H700   1.084       .  S
C693        C694   1.403       .  A
C693        C698   1.409       .  A
C694        C695   1.409       .  A
C695        C696   1.393       .  A
C695        N702   1.432       .  S
C696        H701   1.084       .  S
C696        C697   1.408       .  A
C697        C698   1.417       .  A
C698        N699   1.437       .  S
N699        H703   1.046       .  S
N699        H704   1.046       .  S
N702        H705   1.045       .  S
N702        H706   1.043       .  S
C707        H714   1.083       .  S
C707        C708   1.408       .  A
C707        C712   1.403       .  A
C708        C709   1.419       .  A
C709        C710   1.403       .  A
C709        N716   1.432       .  S
C710        H715   1.084       .  S
C710        C711   1.404       .  A
C711        C712   1.409       .  A
N713        H717   1.045       .  S
N713        H718   1.045       .  S
N716        H719   1.046       .  S
N716        H720   1.044       .  S
O721       Cr739   1.996       .  S
O721        C729   1.264       .  A
O722       Cr739   1.992       .  S
O722        C723   1.262       .  A
C723        O724   1.263       .  A
C723        C796   1.489       .  S
O724       Cr740   1.992       .  S
O725       Cr740   1.981       .  S
O725        C726   1.262       .  A
C726        O727   1.264       .  A
C726        C782   1.469       .  S
O727       Cr741   1.998       .  S
O728       Cr741   1.983       .  S
O728        C729   1.261       .  A
C729        C813   1.481       .  S
O730       Cr739   1.985       .  S
O730        C738   1.260       .  A
O731       Cr739   1.996       .  S
O731        C732   1.265       .  A
C732        O733   1.262       .  A
C732        C841   1.489       .  S
O733       Cr740   1.984       .  S
O734       Cr740   1.989       .  S
O734        C735   1.262       .  A
C735        O736   1.263       .  A
C735        C827   1.489       .  S
O736       Cr741   1.993       .  S
O737       Cr741   2.000       .  S
O737        C738   1.265       .  A
C738        C852   1.490       .  S
Cr739       O742   1.773       .  S
Cr740       O742   1.771       .  S
Cr741       O742   1.775       .  S
C743        C749   1.537   1_455  S
C743       C1035   1.544   1_445  S
C743        C768   1.533       .  S
C744        H751   1.083       .  S
C744        C745   1.370       .  D
C745        C799   1.492       .  S
C746        C750   1.536   1_565  S
C746       C1036   1.536       .  S
C746        H752   1.108       .  S
C747       C1031   1.544   1_655  S
C747        H753   1.086       .  S
C747        C748   1.359       .  D
C748       C1034   1.536       .  S
C748        C810   1.474       .  S
C749        H754   1.086       .  S
C749        C750   1.364       .  D
C750        C785   1.487       .  S
C755       C1044   1.547   1_445  S
C755        C761   1.539   1_455  S
C755        C771   1.533       .  S
C756       C1043   1.547   1_655  S
C756        H763   1.085       .  S
C756        C757   1.365       .  D
C757       C1046   1.535   1_655  S
C757        C855   1.486       .  S
C758       C1045   1.534   1_445  S
C758        C762   1.534   1_455  S
C758        H764   1.110       .  S
C759        H765   1.085       .  S
C759        C760   1.363       .  D
C760        C838   1.478       .  S
C761        H766   1.086       .  S
C761        C762   1.364       .  D
C762        C824   1.481       .  S
C767        H774   1.083       .  S
C767       C1056   1.409   1_655  A
C768       C1055   1.409   1_445  A
C769        N776   1.437       .  S
C770        H775   1.081       .  S
C771       C1060   1.414   1_445  A
C772       C1059   1.413   1_655  A
C772        N773   1.433       .  S
N773        H777   1.046       .  S
N773        H778   1.046       .  S
N776        H779   1.045       .  S
N776        H780   1.046       .  S
C781        H788   1.084       .  S
C781        C782   1.398       .  A
C781        C786   1.401       .  A
C782        C783   1.409       .  A
C783        C784   1.408       .  A
C783        N790   1.438       .  S
C784        C785   1.405       .  A
C785        C786   1.410       .  A
C786       N1075   1.429   1_545  S
N787       C1074   1.429       .  S
N787        H791   1.046       .  S
N787        H792   1.046       .  S
N790        H793   1.046       .  S
N790        H794   1.045       .  S
C795        H802   1.084       .  S
C795        C796   1.406       .  A
C795        C800   1.397       .  A
C796        C797   1.416       .  A
C797        C798   1.404       .  A
C797        N804   1.431       .  S
C798        H803   1.084       .  S
C798        C799   1.408       .  A
C799        C800   1.409       .  A
C800       N1089   1.431   1_545  S
N801       C1088   1.431       .  S
N801        H805   1.046       .  S
N801        H806   1.046       .  S
N804        H807   1.046       .  S
N804        H808   1.044       .  S
C809        H816   1.083       .  S
C809        C810   1.395       .  A
C809        C814   1.398       .  A
C810        C811   1.416       .  A
C811        C812   1.404       .  A
C812        H817   1.084       .  S
C812        C813   1.405       .  A
C813        C814   1.411       .  A
C814        N815   1.432       .  S
N815        H819   1.045       .  S
N815        H820   1.046       .  S
N818        H821   1.043       .  S
N818        H822   1.045       .  S
C823        C824   1.404       .  A
C823        C828   1.411       .  A
C824        C825   1.403       .  A
C825        C826   1.398       .  A
C825       N1120   1.433   1_545  S
C826        H831   1.084       .  S
C826        C827   1.409       .  A
C827        C828   1.416       .  A
C828        N829   1.437       .  S
N829        H834   1.046       .  S
N832       C1113   1.433       .  S
N832        H835   1.046       .  S
N832        H836   1.045       .  S
C837        H844   1.084       .  S
C837        C838   1.403       .  A
C837        C842   1.409       .  A
C838        C839   1.409       .  A
C839        C840   1.394       .  A
C839        N846   1.432       .  S
C840        H845   1.084       .  S
C840        C841   1.408       .  A
C841        C842   1.417       .  A
C842        N843   1.437       .  S
N843        H847   1.046       .  S
N843        H848   1.046       .  S
N846        H849   1.046       .  S
N846        H850   1.043       .  S
C851        H858   1.083       .  S
C851        C852   1.408       .  A
C851        C856   1.403       .  A
C852        C853   1.419       .  A
C853        C854   1.403       .  A
C853        N860   1.432       .  S
C854        H859   1.084       .  S
C854        C855   1.404       .  A
C855        C856   1.409       .  A
N857        H861   1.045       .  S
N857        H862   1.045       .  S
N860        H863   1.046       .  S
N860        H864   1.044       .  S
O865       Cr883   1.996       .  S
O865        C873   1.264       .  A
O866       Cr883   1.993       .  S
O866        C867   1.262       .  A
C867        O868   1.264       .  A
C867        C940   1.490       .  S
O868       Cr884   1.992       .  S
O869       Cr884   1.981       .  S
O869        C870   1.262       .  A
C870        O871   1.264       .  A
C870        C926   1.469       .  S
O871       Cr885   1.997       .  S
O872       Cr885   1.984       .  S
O872        C873   1.261       .  A
C873        C957   1.482       .  S
O874       Cr883   1.985       .  S
O874        C882   1.260       .  A
O875       Cr883   1.997       .  S
O875        C876   1.265       .  A
C876        O877   1.262       .  A
C876        C985   1.489       .  S
O877       Cr884   1.985       .  S
O878       Cr884   1.990       .  S
O878        C879   1.262       .  A
C879        O880   1.263       .  A
C879        C971   1.489       .  S
O880       Cr885   1.992       .  S
O881       Cr885   1.999       .  S
O881        C882   1.265       .  A
C882        C996   1.490       .  S
Cr883       O886   1.773       .  S
Cr884       O886   1.771       .  S
Cr885       O886   1.775       .  S
C887        C893   1.536   1_455  S
C887        C912   1.534       .  S
C888        H895   1.083       .  S
C888        C889   1.370       .  D
C889        C943   1.493       .  S
C890        C894   1.536       .  S
C890        H896   1.108       .  S
C891        H897   1.086       .  S
C891        C892   1.359       .  D
C892        C954   1.475       .  S
C893        H898   1.086       .  S
C893        C894   1.364       .  D
C894        C929   1.486       .  S
C899        C905   1.539   1_455  S
C899        C915   1.533       .  S
C900        H907   1.085       .  S
C900        C901   1.366       .  D
C901        C999   1.486       .  S
C902        C906   1.534   1_455  S
C902        H908   1.110       .  S
C903        H909   1.085       .  S
C903        C904   1.363       .  D
C904        C982   1.479       .  S
C905        H910   1.086       .  S
C905        C906   1.364       .  D
C906        C968   1.481       .  S
C911        H918   1.083       .  S
C911       C1060   1.401   1_554  A
C913       C1058   1.407   1_554  A
C913        N920   1.437       .  S
C914        H919   1.081       .  S
C914       C1057   1.407       .  A
C916       C1055   1.401       .  A
C916        N917   1.433       .  S
N917        H921   1.046       .  S
N917        H922   1.046       .  S
N920        H923   1.046       .  S
N920        H924   1.045       .  S
C925        H932   1.084       .  S
C925        C926   1.398       .  A
C925        C930   1.401       .  A
C926        C927   1.410       .  A
C927        C928   1.408       .  A
C927        N934   1.438       .  S
C928        C929   1.405       .  A
C929        C930   1.410       .  A
N931        H935   1.046       .  S
N931        H936   1.046       .  S
N934        H937   1.046       .  S
N934        H938   1.045       .  S
C939        H946   1.084       .  S
C939        C940   1.406       .  A
C939        C944   1.397       .  A
C940        C941   1.416       .  A
C941        C942   1.404       .  A
C941        N948   1.431       .  S
C942        H947   1.084       .  S
C942        C943   1.408       .  A
C943        C944   1.410       .  A
N945        H949   1.046       .  S
N945        H950   1.046       .  S
N948        H951   1.046       .  S
N948        H952   1.044       .  S
C953        H960   1.083       .  S
C953        C954   1.396       .  A
C953        C958   1.398       .  A
C954        C955   1.416       .  A
C955        C956   1.405       .  A
C956        H961   1.084       .  S
C956        C957   1.406       .  A
C957        C958   1.412       .  A
C958        N959   1.432       .  S
N959        H963   1.045       .  S
N959        H964   1.046       .  S
N962        H965   1.043       .  S
N962        H966   1.045       .  S
C967        C968   1.404       .  A
C967        C972   1.411       .  A
C968        C969   1.404       .  A
C969        C970   1.398       .  A
C970        H975   1.084       .  S
C970        C971   1.409       .  A
C971        C972   1.416       .  A
C972        N973   1.437       .  S
N973        H978   1.046       .  S
N976        H979   1.046       .  S
N976        H980   1.045       .  S
C981        H988   1.084       .  S
C981        C982   1.403       .  A
C981        C986   1.409       .  A
C982        C983   1.409       .  A
C983        C984   1.394       .  A
C983        N990   1.433       .  S
C984        H989   1.083       .  S
C984        C985   1.408       .  A
C985        C986   1.417       .  A
C986        N987   1.437       .  S
N987        H991   1.045       .  S
N987        H992   1.046       .  S
N990        H993   1.045       .  S
N990        H994   1.043       .  S
C995       H1002   1.083       .  S
C995        C996   1.408       .  A
C995       C1000   1.403       .  A
C996        C997   1.419       .  A
C997        C998   1.403       .  A
C997       N1004   1.432       .  S
C998       H1003   1.084       .  S
C998        C999   1.404       .  A
C999       C1000   1.409       .  A
N1001      H1005   1.045       .  S
N1001      H1006   1.046       .  S
N1004      H1007   1.046       .  S
N1004      H1008   1.045       .  S
O1009     Cr1027   1.996       .  S
O1009      C1017   1.264       .  A
O1010     Cr1027   1.992       .  S
O1010      C1011   1.262       .  A
C1011      O1012   1.264       .  A
C1011      C1084   1.490       .  S
O1012     Cr1028   1.993       .  S
O1013     Cr1028   1.980       .  S
O1013      C1014   1.262       .  A
C1014      O1015   1.264       .  A
C1014      C1070   1.469       .  S
O1015     Cr1029   1.998       .  S
O1016     Cr1029   1.984       .  S
O1016      C1017   1.261       .  A
C1017      C1101   1.481       .  S
O1018     Cr1027   1.985       .  S
O1018      C1026   1.260       .  A
O1019     Cr1027   1.996       .  S
O1019      C1020   1.265       .  A
C1020      O1021   1.262       .  A
C1020      C1129   1.488       .  S
O1021     Cr1028   1.984       .  S
O1022     Cr1028   1.990       .  S
O1022      C1023   1.262       .  A
C1023      O1024   1.263       .  A
C1023      C1115   1.489       .  S
O1024     Cr1029   1.993       .  S
O1025     Cr1029   1.999       .  S
O1025      C1026   1.265       .  A
C1026      C1140   1.490       .  S
Cr1027     O1030   1.773       .  S
Cr1028     O1030   1.771       .  S
Cr1029     O1030   1.774       .  S
C1031      C1037   1.536   1_455  S
C1031      C1056   1.533       .  S
C1032      H1039   1.083       .  S
C1032      C1033   1.370       .  D
C1033      C1087   1.493       .  S
C1034      C1038   1.536       .  S
C1034      H1040   1.108       .  S
C1035      H1041   1.086       .  S
C1035      C1036   1.359       .  D
C1036      C1098   1.474       .  S
C1037      H1042   1.086       .  S
C1037      C1038   1.364       .  D
C1038      C1073   1.486       .  S
C1043      C1049   1.539   1_455  S
C1043      C1059   1.533       .  S
C1044      H1051   1.085       .  S
C1044      C1045   1.365       .  D
C1045      C1143   1.485       .  S
C1046      C1050   1.534   1_455  S
C1046      H1052   1.110       .  S
C1047      H1053   1.085       .  S
C1047      C1048   1.363       .  D
C1048      C1126   1.478       .  S
C1049      H1054   1.086       .  S
C1049      C1050   1.364       .  D
C1050      C1112   1.481       .  S
C1055      H1062   1.083       .  S
C1057      N1064   1.437       .  S
C1058      H1063   1.080       .  S
C1060      N1061   1.433       .  S
N1061      H1065   1.046       .  S
N1061      H1066   1.046       .  S
N1064      H1067   1.045       .  S
N1064      H1068   1.046       .  S
C1069      H1076   1.084       .  S
C1069      C1070   1.398       .  A
C1069      C1074   1.401       .  A
C1070      C1071   1.410       .  A
C1071      C1072   1.408       .  A
C1071      N1078   1.438       .  S
C1072      C1073   1.405       .  A
C1073      C1074   1.409       .  A
N1075      H1079   1.046       .  S
N1075      H1080   1.046       .  S
N1078      H1081   1.046       .  S
N1078      H1082   1.045       .  S
C1083      H1090   1.084       .  S
C1083      C1084   1.406       .  A
C1083      C1088   1.397       .  A
C1084      C1085   1.417       .  A
C1085      C1086   1.404       .  A
C1085      N1092   1.431       .  S
C1086      H1091   1.084       .  S
C1086      C1087   1.408       .  A
C1087      C1088   1.410       .  A
N1089      H1093   1.045       .  S
N1089      H1094   1.046       .  S
N1092      H1095   1.045       .  S
N1092      H1096   1.044       .  S
C1097      H1104   1.083       .  S
C1097      C1098   1.395       .  A
C1097      C1102   1.398       .  A
C1098      C1099   1.416       .  A
C1099      C1100   1.405       .  A
C1100      H1105   1.084       .  S
C1100      C1101   1.406       .  A
C1101      C1102   1.412       .  A
C1102      N1103   1.432       .  S
N1103      H1107   1.045       .  S
N1103      H1108   1.046       .  S
N1106      H1109   1.043       .  S
N1106      H1110   1.046       .  S
C1111      C1112   1.404       .  A
C1111      C1116   1.411       .  A
C1112      C1113   1.404       .  A
C1113      C1114   1.398       .  A
C1114      H1119   1.084       .  S
C1114      C1115   1.409       .  A
C1115      C1116   1.416       .  A
C1116      N1117   1.437       .  S
N1117      H1122   1.045       .  S
N1120      H1123   1.046       .  S
N1120      H1124   1.045       .  S
C1125      H1132   1.084       .  S
C1125      C1126   1.403       .  A
C1125      C1130   1.409       .  A
C1126      C1127   1.409       .  A
C1127      C1128   1.393       .  A
C1127      N1134   1.432       .  S
C1128      H1133   1.084       .  S
C1128      C1129   1.408       .  A
C1129      C1130   1.417       .  A
C1130      N1131   1.437       .  S
N1131      H1135   1.046       .  S
N1131      H1136   1.046       .  S
N1134      H1137   1.045       .  S
N1134      H1138   1.043       .  S
C1139      H1146   1.083       .  S
C1139      C1140   1.408       .  A
C1139      C1144   1.403       .  A
C1140      C1141   1.419       .  A
C1141      C1142   1.403       .  A
C1141      N1148   1.432       .  S
C1142      H1147   1.084       .  S
C1142      C1143   1.404       .  A
C1143      C1144   1.409       .  A
N1145      H1149   1.046       .  S
N1145      H1150   1.045       .  S
N1148      H1151   1.046       .  S
N1148      H1152   1.045       .  S
