geometry optimzed in LAMMPS
_audit_creation_date              2020-12-01 
_audit_creation_method            'lammps2cif' 
_symmetry_space_group_name_H-M    'P1' 
_symmetry_Int_Tables_number       1 
_symmetry_cell_setting            triclinic 
loop_ 
_symmetry_equiv_pos_as_xyz 
  x,y,z 
_cell_length_a                    31.00459467 
_cell_length_b                    30.437321771346724 
_cell_length_c                    27.23952322428325 
_cell_angle_alpha                 90.36448699421896 
_cell_angle_beta                  89.35912126308895 
_cell_angle_gamma                 89.313516557969 
loop_ 
_atom_site_label 
_atom_site_type_symbol 
_atom_site_fract_x 
_atom_site_fract_y 
_atom_site_fract_z 
_atom_site_charge 
Zn1        Zn  0.44653560  0.99880329  0.96061852     1.49700
Zn2        Zn  0.49928548  0.05262504  0.04332639     1.49400
Zn3        Zn  0.99572943  0.44791613  0.04491032     1.49100
Zn4        Zn  0.05037098  0.49908362  0.96224266     1.49500
O5          O  0.99996937  0.99938134  0.00146656    -1.83700
O6          O  0.41121078  0.05515330  0.97208874    -0.74400
O7          O  0.49968683  0.03708304  0.11583383    -0.74200
O8          O  0.44506170  0.41111854  0.03083782    -0.73700
O9          O  0.44819969  0.09135481  0.02847938    -0.74400
O10         O  0.41280809  0.44353182  0.96793484    -0.74000
O11         O  0.99460910  0.46371323  0.11688351    -0.74600
O12         O  0.08552127  0.44271823  0.97493215    -0.73900
O13         O  0.04928619  0.09099800  0.02871434    -0.74700
O14         O  0.04662131  0.40863666  0.03160065    -0.74100
O15         O  0.09027971  0.05429819  0.97538564    -0.74600
O16         O  0.03505498  0.49851918  0.88990514    -0.74500
O17         O  0.46379992  0.99914851  0.88911304    -0.74300
C18         C  0.41673022  0.08913142  0.99891838     0.77500
C19         C  0.50256682  0.50021194  0.13775709     0.78000
C20         C  0.41559966  0.41212316  0.99866155     0.77000
C21         C  0.07924438  0.40987750  0.00310242     0.77400
C22         C  0.08278422  0.08860665  0.00158964     0.78500
C23         C  0.00479158  0.00045593  0.86692093     0.77500
C24         C  0.28760526  0.27548186  0.00033032     0.02700
C25         C  0.28963159  0.22885668  0.99909508     0.02600
C26         C  0.25101732  0.20533029  0.99612162    -0.17900
C27         C  0.21063209  0.22628664  0.99221595     0.02700
C28         C  0.20881769  0.27286722  0.99247449     0.02600
C29         C  0.24723089  0.29636866  0.99654147    -0.17900
H30         H  0.24559331  0.33202361  0.99722830     0.04700
H31         H  0.25250084  0.16967593  0.99607262     0.04700
C32         C  0.99951854  0.50000556  0.81355771     0.80600
N33         N  0.01327319  0.03861187  0.78867133    -0.77700
C34         C  0.01208701  0.03846911  0.73880922     0.83100
N35         N  0.99612932  0.49998125  0.71438487    -0.77600
C36         C  0.00281891  0.46186507  0.73827196     0.83200
N37         N  0.00453633  0.46162534  0.78806462    -0.79300
C38         C  0.99132849  0.49978528  0.19408151     0.80600
N39         N  0.01461659  0.03401582  0.21751090    -0.77700
C40         C  0.01913443  0.03199170  0.26700134     0.83100
N41         N  0.98560306  0.49899023  0.29337067    -0.77600
C42         C  0.99167429  0.46092515  0.26866254     0.83200
N43         N  0.99437681  0.46100042  0.21881465    -0.79300
N44         N  0.00712565  0.24678871  0.42749240    -0.36200
N45         N  0.00980641  0.31540563  0.50211436    -0.56800
N46         N  0.01884542  0.24818701  0.57672091    -0.36200
N47         N  0.02175323  0.17978165  0.50174210    -0.56800
C48         C  0.01151203  0.28279629  0.39926009     0.27400
C49         C  0.01826415  0.21172161  0.39929391     0.27400
C50         C  0.02647356  0.28450738  0.60377865     0.27400
C51         C  0.03158124  0.21332657  0.60351305     0.27400
C52         C  0.99831928  0.34020634  0.46332935     0.36000
C53         C  0.00463008  0.34090552  0.54258063     0.36000
C54         C  0.01335053  0.15372452  0.46280269     0.36000
C55         C  0.01811456  0.15443200  0.54204517     0.36000
C56         C  0.02502162  0.27038000  0.35238812    -0.21500
C57         C  0.02949371  0.22551500  0.35249212    -0.21500
C58         C  0.04403522  0.27253335  0.64846252    -0.21500
C59         C  0.04727758  0.22756856  0.64827000    -0.21500
C60         C  0.98647455  0.38207471  0.47909441    -0.22500
C61         C  0.99024948  0.38245128  0.52940865    -0.22500
C62         C  0.00515109  0.11131724  0.47824153    -0.22500
C63         C  0.00783690  0.11183828  0.52862443    -0.22500
C64         C  0.00132910  0.32629846  0.41374321    -0.17900
C65         C  0.01525399  0.16740937  0.41343242    -0.17900
C66         C  0.02611492  0.16890669  0.59044565    -0.17900
C67         C  0.01539320  0.32793773  0.59076965    -0.17900
H68         H  0.03064038  0.29133705  0.32107889     0.15000
H69         H  0.03905728  0.20527621  0.32132248     0.15000
H70         H  0.05300708  0.29392557  0.67845813     0.15000
H71         H  0.05917343  0.20757436  0.67804426     0.15000
H72         H  0.97656456  0.40954047  0.45665087     0.13300
H73         H  0.98392352  0.41030204  0.55344009     0.13300
H74         H  0.99798385  0.08305269  0.45557295     0.13300
H75         H  0.00336378  0.08397932  0.55257287     0.13300
H76         H  0.99446759  0.24592534  0.46286578     0.26600
H77         H  0.00297127  0.24700976  0.54351265     0.26600
C78         C  0.48347457  0.40322119  0.31499088    -0.05400
C79         C  0.99594145  0.42083602  0.29774884     0.00500
C80         C  0.03576196  0.40938609  0.31928122    -0.08000
C81         C  0.03599464  0.37899677  0.35778124    -0.05400
C82         C  0.99785104  0.35949760  0.37432753     0.00500
C83         C  0.48641556  0.37263692  0.35323541    -0.07900
C84         C  0.44592248  0.35155025  0.37371221     0.62400
H85         H  0.45220309  0.41355425  0.30161120     0.13100
H86         H  0.06597586  0.37002910  0.37536529     0.13200
C87         C  0.07761249  0.42969028  0.30182993     0.62700
F88         F  0.40923246  0.36600802  0.34990693    -0.22500
F89         F  0.44132051  0.36169787  0.42305245    -0.19800
F90         F  0.44869715  0.30642524  0.36806974    -0.19500
F91         F  0.07642536  0.47452356  0.31012033    -0.19500
F92         F  0.08316180  0.42166517  0.25211109    -0.19900
F93         F  0.11295683  0.41240027  0.32598489    -0.22500
C94         C  0.05528784  0.11222338  0.36331952    -0.05400
C95         C  0.01603663  0.13377621  0.37386897     0.00500
C96         C  0.48036486  0.12931021  0.35506270    -0.08000
C97         C  0.47713989  0.09809667  0.31716281    -0.05400
C98         C  0.02164693  0.07147107  0.29764979     0.00500
C99         C  0.05856184  0.08039121  0.32589316    -0.07900
C100        C  0.10087465  0.05594027  0.31673583     0.62400
H101        H  0.08307289  0.12002074  0.38535783     0.13100
H102        H  0.44579459  0.08850618  0.30387971     0.13500
C103        C  0.44017409  0.15266755  0.37478121     0.62700
F104        F  0.13372855  0.07236341  0.34529298    -0.22500
F105        F  0.11293177  0.05989890  0.26794240    -0.19800
F106        F  0.09621855  0.01196286  0.32773517    -0.19500
F107        F  0.44369132  0.19741964  0.36758170    -0.19500
F108        F  0.43535097  0.14463297  0.42441878    -0.19900
F109        F  0.40330481  0.13872002  0.35139544    -0.22500
C110        C  0.48894407  0.13342807  0.64894210    -0.05400
C111        C  0.02510352  0.13687514  0.63113616     0.00500
C112        C  0.06094704  0.10988893  0.64273481    -0.08000
C113        C  0.05681433  0.08030459  0.68181524    -0.05400
C114        C  0.01856421  0.07800965  0.70958668     0.00500
C115        C  0.47993136  0.10575441  0.68855057    -0.07900
C116        C  0.43320474  0.10210158  0.70510240     0.62400
H117        H  0.46275572  0.15112842  0.63150351     0.13100
H118        H  0.08270606  0.05725813  0.68963152     0.13200
C119        C  0.10302744  0.11225833  0.61390816     0.62700
F120        F  0.41538429  0.14375554  0.71079839    -0.22500
F121        F  0.42862411  0.08067538  0.74942918    -0.19800
F122        F  0.41042375  0.07965932  0.66975237    -0.19500
F123        F  0.11813497  0.15481069  0.61472528    -0.19500
F124        F  0.09664697  0.09949810  0.56579891    -0.19900
F125        F  0.13452571  0.08511330  0.63342861    -0.22500
C126        C  0.04584429  0.41928072  0.67894282    -0.05400
C127        C  0.00864669  0.42199140  0.70852854     0.00500
C128        C  0.48573775  0.40354920  0.68391037    -0.08000
C129        C  0.49471487  0.37413032  0.64544820    -0.05400
C130        C  0.01417242  0.36110478  0.63088325     0.00500
C131        C  0.04964975  0.38847366  0.64058448    -0.07900
C132        C  0.09126761  0.38486982  0.61085687     0.62400
H133        H  0.07141003  0.44252978  0.68531041     0.13100
H134        H  0.46834196  0.35760580  0.62746263     0.13200
C135        C  0.43861315  0.41060350  0.69800265     0.62700
F136        F  0.12186147  0.41416580  0.62716923    -0.22500
F137        F  0.08339085  0.39361375  0.56204769    -0.19800
F138        F  0.10839374  0.34291290  0.61481660    -0.19500
F139        F  0.41714952  0.42920152  0.65889036    -0.19500
F140        F  0.43262199  0.43731223  0.73878216    -0.19900
F141        F  0.42029651  0.37044121  0.70835525    -0.22500
C142        C  0.37764169  0.15050867  0.04041630    -0.05400
C143        C  0.38640038  0.12743337  0.99652892     0.00500
C144        C  0.36805197  0.14293121  0.95219102    -0.08000
C145        C  0.34042625  0.18010804  0.95412026    -0.05400
C146        C  0.32987789  0.20164890  0.99854872     0.00500
C147        C  0.34908175  0.18676691  0.04244937    -0.07900
C148        C  0.33888533  0.20836993  0.09153338     0.62400
H149        H  0.39245767  0.13890654  0.07380436     0.13100
H150        H  0.32435851  0.19104761  0.92117949     0.13200
C151        C  0.37722706  0.12060028  0.90303000     0.62700
F152        F  0.35345989  0.25095810  0.09089540    -0.22500
F153        F  0.35883642  0.18696007  0.12996640    -0.19800
F154        F  0.29491517  0.20826530  0.10055833    -0.19500
F155        F  0.35989828  0.07894936  0.90273639    -0.19500
F156        F  0.42128528  0.11768069  0.89480751    -0.19900
F157        F  0.35932042  0.14362567  0.86444215    -0.22500
C158        C  0.12684447  0.35910882  0.95524820    -0.05400
C159        C  0.10942051  0.37139863  0.00119363     0.00500
C160        C  0.12087116  0.34661680  0.04335745    -0.08000
C161        C  0.15035939  0.31127407  0.03779985    -0.05400
C162        C  0.16862425  0.29989338  0.99208333     0.00500
C163        C  0.15651713  0.32398043  0.94996096    -0.07900
C164        C  0.17561752  0.31316185  0.89972289     0.62400
H165        H  0.11742351  0.37780619  0.92333885     0.13100
H166        H  0.16158540  0.29381637  0.06980720     0.13200
C167        C  0.10433330  0.35869369  0.09453081     0.62700
F168        F  0.15794090  0.33907294  0.86332759    -0.22500
F169        F  0.16748355  0.26982758  0.88828869    -0.19800
F170        F  0.21966060  0.31972621  0.89950411    -0.19500
F171        F  0.06066287  0.35046428  0.09819261    -0.19500
F172        F  0.11161073  0.40269425  0.10395521    -0.19900
F173        F  0.12480102  0.33456426  0.13056690    -0.22500
C174        C  0.13792439  0.13184063  0.95625001    -0.05400
C175        C  0.11272776  0.12699919  0.99906057     0.00500
C176        C  0.11681179  0.15881738  0.03743635    -0.08000
C177        C  0.14645799  0.19335045  0.03144590    -0.05400
C178        C  0.17235500  0.19723293  0.98919736     0.00500
C179        C  0.16767785  0.16605310  0.95057602    -0.07900
C180        C  0.19399506  0.16601863  0.90310853     0.62400
H181        H  0.13475759  0.10817693  0.92662119     0.13100
H182        H  0.15159885  0.21626716  0.06124268     0.13200
C183        C  0.09200723  0.15557348  0.08577069     0.62700
F184        F  0.16630930  0.16667225  0.86363486    -0.22500
F185        F  0.21887826  0.12802877  0.90055013    -0.19800
F186        F  0.22104764  0.20152037  0.89864333    -0.19500
F187        F  0.09815576  0.11433833  0.10582354    -0.19500
F188        F  0.04853100  0.16304930  0.07804711    -0.19900
F189        F  0.10551457  0.18621303  0.11991467    -0.22500
C190        C  0.35875904  0.36972986  0.04038138    -0.05400
C191        C  0.38400101  0.37580042  0.99813092     0.00500
C192        C  0.38056597  0.34567191  0.95844917    -0.08000
C193        C  0.35169369  0.31023577  0.96270135    -0.05400
C194        C  0.32539276  0.30494595  0.00453803     0.00500
C195        C  0.32893792  0.33548890  0.04414756    -0.07900
C196        C  0.30146713  0.33470461  0.09079067     0.62400
H197        H  0.36171688  0.39279272  0.07065501     0.13100
H198        H  0.34752167  0.28783287  0.93210966     0.13200
C199        C  0.40691718  0.35126882  0.91170488     0.62700
F200        F  0.32807198  0.33544771  0.13123333    -0.22500
F201        F  0.27585473  0.29805222  0.09463069    -0.19800
F202        F  0.27507220  0.37165354  0.09226464    -0.19500
F203        F  0.45036350  0.35170959  0.92261903    -0.19500
F204        F  0.39555891  0.39040509  0.88951636    -0.19900
F205        F  0.40010156  0.31753889  0.87843522    -0.22500
Zn206      Zn  0.44855114  0.49945670  0.95853168     1.49700
Zn207      Zn  0.49945599  0.55180121  0.04248414     1.49400
Zn208      Zn  0.99693530  0.94708365  0.04248259     1.49100
Zn209      Zn  0.05413320  0.99916541  0.96256579     1.49500
O210        O  0.99709684  0.49983411  0.00278780    -1.83700
O211        O  0.41205331  0.55459981  0.97116163    -0.74400
O212        O  0.50109530  0.53660549  0.11489766    -0.74200
O213        O  0.44530660  0.90987598  0.03182854    -0.73700
O214        O  0.44763790  0.58979292  0.02927669    -0.74400
O215        O  0.41048465  0.94300799  0.97138238    -0.74000
O216        O  0.00010496  0.96215050  0.11411640    -0.74600
O217        O  0.08813571  0.94203063  0.97462581    -0.73900
O218        O  0.04787839  0.59049710  0.03114879    -0.74700
O219        O  0.04614691  0.90665844  0.02733131    -0.74100
O220        O  0.08598718  0.55498139  0.97403827    -0.74600
O221        O  0.04007757  0.00101340  0.89034155    -0.74500
O222        O  0.46641213  0.50211149  0.88717696    -0.74300
C223        C  0.41653332  0.58785763  0.99926959     0.77500
C224        C  0.49927321  0.00054020  0.13850107     0.78000
C225        C  0.41480377  0.91096108  0.00105750     0.77000
C226        C  0.07991178  0.90828990  0.00074170     0.77400
C227        C  0.08021250  0.58850679  0.00207186     0.78500
C228        C  0.99935603  0.49969243  0.86720710     0.77500
C229        C  0.28712498  0.77382503  0.00365149     0.02700
C230        C  0.28916767  0.72721865  0.00090569     0.02600
C231        C  0.25065854  0.70364288  0.99608215    -0.17900
C232        C  0.21034903  0.72457559  0.99178960     0.02700
C233        C  0.20860824  0.77112366  0.99305861     0.02600
C234        C  0.24679825  0.79466500  0.99938928    -0.17900
H235        H  0.24505121  0.83030159  0.00086915     0.04700
H236        H  0.25217384  0.66799575  0.99516792     0.04700
C237        C  0.00589775  0.00064413  0.81346451     0.80600
N238        N  0.99273788  0.53838582  0.78917669    -0.77700
C239        C  0.99094833  0.53810026  0.73935758     0.83100
N240        N  0.00355900  0.00101214  0.71433698    -0.77600
C241        C  0.99603823  0.96350521  0.73879659     0.83200
N242        N  0.99724581  0.96302967  0.78849339    -0.79300
C243        C  0.00699840  0.99660146  0.19139006     0.80600
N244        N  0.98582373  0.53814529  0.21960429    -0.77700
C245        C  0.98279424  0.53747651  0.26938608     0.83100
N246        N  0.01429352  0.99338491  0.29016329    -0.77600
C247        C  0.00635045  0.95627040  0.26479937     0.83200
N248        N  0.00260081  0.95760745  0.21524165    -0.79300
N249        N  0.98142683  0.75054745  0.43011695    -0.36200
N250        N  0.98234338  0.81900986  0.50381060    -0.56800
N251        N  0.98580694  0.75122287  0.57892996    -0.36200
N252        N  0.98002407  0.68314971  0.50554274    -0.56800
C253        C  0.97279510  0.78622768  0.40261576     0.27400
C254        C  0.96977664  0.71513967  0.40363086     0.27400
C255        C  0.97558942  0.78732175  0.60569802     0.27400
C256        C  0.97570410  0.71612688  0.60662757     0.27400
C257        C  0.99064788  0.84358618  0.46381368     0.36000
C258        C  0.99161827  0.84399764  0.54325939     0.36000
C259        C  0.98616966  0.65767770  0.46534457     0.36000
C260        C  0.98977890  0.65805660  0.54465547     0.36000
C261        C  0.95571174  0.77338225  0.35801377    -0.21500
C262        C  0.95363007  0.72843798  0.35873122    -0.21500
C263        C  0.95875891  0.77510188  0.65095593    -0.21500
C264        C  0.95885715  0.73000137  0.65153886    -0.21500
C265        C  0.00473069  0.88479754  0.47785069    -0.22500
C266        C  0.00515842  0.88512899  0.52842710    -0.22500
C267        C  0.99945112  0.61585883  0.47892963    -0.22500
C268        C  0.00167787  0.61609341  0.52941004    -0.22500
C269        C  0.98300857  0.82975795  0.41516806    -0.17900
C270        C  0.97680046  0.67107535  0.41706858    -0.17900
C271        C  0.98487364  0.67214294  0.59383288    -0.17900
C272        C  0.98539028  0.83065461  0.59228620    -0.17900
H273        H  0.94629225  0.79419192  0.32779555     0.15000
H274        H  0.94238350  0.70783241  0.32909741     0.15000
H275        H  0.94857404  0.79644795  0.68093991     0.15000
H276        H  0.94866702  0.70974874  0.68195386     0.15000
H277        H  0.01313346  0.91188408  0.45417492     0.13300
H278        H  0.01410527  0.91248527  0.55160697     0.13300
H279        H  0.00611058  0.58799909  0.45502343     0.13300
H280        H  0.01045971  0.58851428  0.55227158     0.13300
H281        H  0.99741560  0.75016455  0.46334999     0.26600
H282        H  0.00220610  0.75063120  0.54546586     0.26600
C283        C  0.45117132  0.92033430  0.32283865    -0.05400
C284        C  0.99741372  0.91687189  0.29336569     0.00500
C285        C  0.03053083  0.88652113  0.30456399    -0.08000
C286        C  0.02490014  0.85912120  0.34537775    -0.05400
C287        C  0.98710414  0.86127548  0.37425061     0.00500
C288        C  0.44564407  0.89113407  0.36200301    -0.07900
C289        C  0.40294170  0.89011688  0.38979612     0.62400
H290        H  0.42576918  0.94363378  0.31399958     0.13100
H291        H  0.04996054  0.83581282  0.35527180     0.13200
C292        C  0.07137072  0.88345760  0.27346001     0.62700
F293        F  0.37258364  0.91805074  0.36936567    -0.22500
F294        F  0.40874082  0.90303587  0.43795491    -0.19800
F295        F  0.38665803  0.84803354  0.38891228    -0.19500
F296        F  0.09202755  0.92346937  0.27292433    -0.19500
F297        F  0.06076421  0.87193570  0.22593341    -0.19900
F298        F  0.09992785  0.85216208  0.29108566    -0.22500
C299        C  0.01202369  0.63563348  0.34536273    -0.05400
C300        C  0.97619438  0.63795903  0.37719402     0.00500
C301        C  0.44800231  0.61176200  0.36056308    -0.08000
C302        C  0.45494864  0.58185964  0.32171236    -0.05400
C303        C  0.97842221  0.57745725  0.29921888     0.00500
C304        C  0.01362856  0.60581156  0.30589956    -0.07900
C305        C  0.05309073  0.60345951  0.27248866     0.62400
H306        H  0.03886347  0.65724455  0.35208213     0.13100
H307        H  0.42965724  0.55953346  0.31119827     0.13500
C308        C  0.40396096  0.61534269  0.38528306     0.62700
F309        F  0.08367416  0.63404515  0.28553282    -0.22500
F310        F  0.04103411  0.61169772  0.22466796    -0.19800
F311        F  0.07197089  0.56216288  0.27485267    -0.19500
F312        F  0.38866276  0.65810640  0.38262352    -0.19500
F313        F  0.40686941  0.60341188  0.43399374    -0.19900
F314        F  0.37422426  0.58831486  0.36309962    -0.22500
C315        C  0.44089833  0.61933460  0.65031058    -0.05400
C316        C  0.98645626  0.63946545  0.63392912     0.00500
C317        C  0.02311568  0.63437462  0.66401813    -0.08000
C318        C  0.02165392  0.60367589  0.70232269    -0.05400
C319        C  0.98496850  0.57828468  0.71082633     0.00500
C320        C  0.44385997  0.58760620  0.68741256    -0.07900
C321        C  0.40436779  0.56211255  0.70301297     0.62400
H322        H  0.41034941  0.62603191  0.63278942     0.13100
H323        H  0.05006258  0.59733269  0.72409723     0.13200
C324        C  0.06407480  0.65986001  0.65425858     0.62700
F325        F  0.36750993  0.57697816  0.67983675    -0.22500
F326        F  0.39805659  0.56651897  0.75315696    -0.19800
F327        F  0.41020745  0.51819108  0.69141339    -0.19500
F328        F  0.05608957  0.70429041  0.66038692    -0.19500
F329        F  0.07840118  0.65194694  0.60672197    -0.19900
F330        F  0.09677141  0.64792955  0.68590173    -0.22500
C331        C  0.02489643  0.89726506  0.70037029    -0.05400
C332        C  0.98867682  0.92392574  0.71001938     0.00500
C333        C  0.43908633  0.92433371  0.67943892    -0.08000
C334        C  0.43947163  0.89279712  0.64163355    -0.05400
C335        C  0.98811291  0.86338938  0.63226780     0.00500
C336        C  0.02545531  0.86702489  0.66134464    -0.07900
C337        C  0.06628297  0.84080841  0.64954145     0.62400
H338        H  0.05377562  0.90254057  0.72156030     0.13100
H339        H  0.41123214  0.88909015  0.61890774     0.13200
C340        C  0.39833168  0.95180265  0.68684078     0.62700
F341        F  0.09902947  0.85002482  0.68204657    -0.22500
F342        F  0.08058680  0.85087738  0.60273704    -0.19800
F343        F  0.05824004  0.79636239  0.65203324    -0.19500
F344        F  0.39241878  0.97841731  0.64646648    -0.19500
F345        F  0.39933551  0.97796989  0.72848646    -0.19900
F346        F  0.36333414  0.92426682  0.69134959    -0.22500
C347        C  0.37759937  0.64903993  0.04145430    -0.05400
C348        C  0.38574711  0.62581543  0.99748806     0.00500
C349        C  0.36646732  0.64096480  0.95350936    -0.08000
C350        C  0.33946365  0.67853001  0.95567641    -0.05400
C351        C  0.32940882  0.70010390  0.00018465     0.00500
C352        C  0.34886931  0.68514072  0.04389887    -0.07900
C353        C  0.33859699  0.70628822  0.09321451     0.62400
H354        H  0.39287469  0.63757202  0.07462757     0.13100
H355        H  0.32301949  0.68947437  0.92297688     0.13200
C356        C  0.37317525  0.61736272  0.90462222     0.62700
F357        F  0.35255682  0.74906631  0.09288296    -0.22500
F358        F  0.35902622  0.68494477  0.13137104    -0.19800
F359        F  0.29466516  0.70549681  0.10244193    -0.19500
F360        F  0.35445985  0.57637340  0.90654901    -0.19500
F361        F  0.41678090  0.61275826  0.89427306    -0.19900
F362        F  0.35454233  0.64008921  0.86625887    -0.22500
C363        C  0.12845669  0.85803578  0.95376350    -0.05400
C364        C  0.10943407  0.86945392  0.99912674     0.00500
C365        C  0.11898723  0.84373359  0.04119955    -0.08000
C366        C  0.14863753  0.80856642  0.03627313    -0.05400
C367        C  0.16849709  0.79799692  0.99121445     0.00500
C368        C  0.15800791  0.82279632  0.94902272    -0.07900
C369        C  0.17838636  0.81245769  0.89926720     0.62400
H370        H  0.12025558  0.87740898  0.92191623     0.13100
H371        H  0.15878852  0.79069390  0.06844110     0.13200
C372        C  0.10023531  0.85454634  0.09177409     0.62700
F373        F  0.16356973  0.84050529  0.86318147    -0.22500
F374        F  0.16822458  0.77009415  0.88570382    -0.19800
F375        F  0.22270642  0.81636261  0.90118912    -0.19500
F376        F  0.05645523  0.84642359  0.09260462    -0.19500
F377        F  0.10721788  0.89823735  0.10312502    -0.19900
F378        F  0.11894641  0.82935802  0.12815175    -0.22500
C379        C  0.13596882  0.63096024  0.95632541    -0.05400
C380        C  0.11086919  0.62647981  0.99935154     0.00500
C381        C  0.11570890  0.65834790  0.03759234    -0.08000
C382        C  0.14621283  0.69207173  0.03148311    -0.05400
C383        C  0.17182554  0.69568904  0.98900246     0.00500
C384        C  0.16618965  0.66477598  0.95032302    -0.07900
C385        C  0.19160373  0.66489651  0.90226796     0.62400
H386        H  0.13220928  0.60745658  0.92664922     0.13100
H387        H  0.15214601  0.71464628  0.06135852     0.13200
C388        C  0.09055645  0.65633639  0.08579415     0.62700
F389        F  0.16315690  0.66627833  0.86350324    -0.22500
F390        F  0.21602948  0.62666977  0.89858907    -0.19800
F391        F  0.21894563  0.70014959  0.89769221    -0.19500
F392        F  0.09619201  0.61550453  0.10697702    -0.19500
F393        F  0.04721830  0.66410195  0.07747036    -0.19900
F394        F  0.10406761  0.68756433  0.11927942    -0.22500
C395        C  0.35872989  0.86808969  0.04360685    -0.05400
C396        C  0.38373187  0.87413507  0.00116782     0.00500
C397        C  0.38062931  0.84350958  0.96194514    -0.08000
C398        C  0.35154043  0.80826217  0.96629377    -0.05400
C399        C  0.32500298  0.80331452  0.00800584     0.00500
C400        C  0.32886728  0.83386809  0.04761753    -0.07900
C401        C  0.30219522  0.83287033  0.09482117     0.62400
H402        H  0.36185674  0.89119126  0.07382158     0.13100
H403        H  0.34747730  0.78566005  0.93586616     0.13200
C404        C  0.40776198  0.84825723  0.91567077     0.62700
F405        F  0.32960823  0.83137553  0.13455360    -0.22500
F406        F  0.27518162  0.79723329  0.09797645    -0.19800
F407        F  0.27733581  0.87082158  0.09830297    -0.19500
F408        F  0.45102286  0.84824726  0.92751020    -0.19500
F409        F  0.39729364  0.88728746  0.89274093    -0.19900
F410        F  0.40105517  0.81423677  0.88273713    -0.22500
Zn411      Zn  0.94906722  0.99950481  0.95900890     1.49700
Zn412      Zn  0.99957824  0.05144341  0.04395571     1.49400
Zn413      Zn  0.49828199  0.44717471  0.04258240     1.49100
Zn414      Zn  0.55349583  0.49831831  0.96017338     1.49500
O415        O  0.49849741  0.99981595  0.00165070    -1.83700
O416        O  0.91450918  0.05633814  0.96916476    -0.74400
O417        O  0.00285821  0.03513066  0.11597665    -0.74200
O418        O  0.94451598  0.41032020  0.03125357    -0.73700
O419        O  0.94777029  0.08939412  0.03087058    -0.74400
O420        O  0.90988231  0.44401034  0.97088140    -0.74000
O421        O  0.50194131  0.46352049  0.11490445    -0.74600
O422        O  0.58799979  0.44116034  0.97150048    -0.73900
O423        O  0.55100229  0.09045707  0.02910652    -0.74700
O424        O  0.54752732  0.40620968  0.02597879    -0.74100
O425        O  0.58899077  0.05308056  0.97342850    -0.74600
O426        O  0.53821421  0.49858006  0.88801351    -0.74500
O427        O  0.96826276  0.99906015  0.88849283    -0.74300
C428        C  0.91838950  0.08881259  0.99859286     0.77500
C429        C  0.99354449  0.50017134  0.14002470     0.78000
C430        C  0.91420579  0.41178928  0.00026789     0.77000
C431        C  0.58050504  0.40743440  0.99794200     0.77400
C432        C  0.58372848  0.08703256  0.00077039     0.78500
C433        C  0.49962920  0.00198261  0.86618053     0.77500
C434        C  0.78854527  0.27384171  0.99770700     0.02700
C435        C  0.79147123  0.22744355  0.99406800     0.02600
C436        C  0.75348016  0.20329407  0.98837104    -0.17900
C437        C  0.71272380  0.22365647  0.98508794     0.02700
C438        C  0.71014588  0.27028700  0.98657993     0.02600
C439        C  0.74803792  0.29424014  0.99313032    -0.17900
H440        H  0.74586926  0.32983977  0.99513609     0.04700
H441        H  0.75563423  0.16767914  0.98721954     0.04700
C442        C  0.50361794  0.50182341  0.81131983     0.80600
N443        N  0.50893278  0.04098483  0.78818365    -0.77700
C444        C  0.50581928  0.04214157  0.73840772     0.83100
N445        N  0.50267698  0.50226378  0.71200409    -0.77600
C446        C  0.51313751  0.46498781  0.73581209     0.83200
N447        N  0.51387692  0.46457861  0.78562750    -0.79300
C448        C  0.50518579  0.50055724  0.19183875     0.80600
N449        N  0.50642325  0.03840630  0.21787394    -0.77700
C450        C  0.50774289  0.03779341  0.26767441     0.83100
N451        N  0.50927300  0.50092942  0.29118585    -0.77600
C452        C  0.51421586  0.46275119  0.26633801     0.83200
N453        N  0.51183909  0.46223837  0.21654232    -0.79300
N454        N  0.52995806  0.25091132  0.42746670    -0.36200
N455        N  0.54084070  0.31954983  0.50105322    -0.56800
N456        N  0.54447331  0.25144137  0.57663843    -0.36200
N457        N  0.53532540  0.18280845  0.50236998    -0.56800
C458        C  0.53718202  0.28590166  0.39837670     0.27400
C459        C  0.53453304  0.21471507  0.39889540     0.27400
C460        C  0.54505336  0.28755814  0.60574717     0.27400
C461        C  0.54250241  0.21606086  0.60636855     0.27400
C462        C  0.53406849  0.34537858  0.46167372     0.36000
C463        C  0.53963105  0.34602632  0.54099088     0.36000
C464        C  0.52781837  0.15683668  0.46309630     0.36000
C465        C  0.53347150  0.15699201  0.54246810     0.36000
C466        C  0.54594539  0.27180815  0.35075436    -0.21500
C467        C  0.54422892  0.22692431  0.35105541    -0.21500
C468        C  0.54493792  0.27480577  0.65460461    -0.21500
C469        C  0.54332087  0.22992649  0.65498824    -0.21500
C470        C  0.52931210  0.38880603  0.47645027    -0.22500
C471        C  0.53283986  0.38924216  0.52671806    -0.22500
C472        C  0.52181578  0.11391491  0.47814656    -0.22500
C473        C  0.52538830  0.11400535  0.52843521    -0.22500
C474        C  0.53304212  0.33036589  0.41249601    -0.17900
C475        C  0.52763334  0.17104015  0.41374331    -0.17900
C476        C  0.53778376  0.17162377  0.59168885    -0.17900
C477        C  0.54307106  0.33191913  0.59032008    -0.17900
H478        H  0.55226491  0.29177626  0.31880124     0.15000
H479        H  0.54901963  0.20579335  0.31932104     0.15000
H480        H  0.54495176  0.29567227  0.68692775     0.15000
H481        H  0.54190598  0.20990011  0.68764472     0.15000
H482        H  0.52368704  0.41713591  0.45346492     0.13300
H483        H  0.53018331  0.41804517  0.55011919     0.13300
H484        H  0.51553280  0.08552874  0.45530046     0.13300
H485        H  0.52210195  0.08570553  0.55198640     0.13300
H486        H  0.51947331  0.25179430  0.46367143     0.26600
H487        H  0.54433094  0.25111541  0.53890322     0.26600
C488        C  0.95791920  0.40056548  0.31343757    -0.05400
C489        C  0.52038889  0.42278734  0.29520895     0.00500
C490        C  0.56166492  0.41068022  0.31234673    -0.08000
C491        C  0.56463779  0.38078762  0.35123839    -0.05400
C492        C  0.52758234  0.36270942  0.37251454     0.00500
C493        C  0.95829510  0.36919698  0.35109239    -0.07900
C494        C  0.91694520  0.34642808  0.36600568     0.62400
H495        H  0.92776114  0.41053658  0.29689865     0.13100
H496        H  0.59582115  0.37152773  0.36572593     0.13200
C497        C  0.60209671  0.43029825  0.29025151     0.62700
F498        F  0.88176062  0.36239502  0.34049534    -0.22500
F499        F  0.90884087  0.35276735  0.41556350    -0.19800
F500        F  0.92095766  0.30189957  0.35639082    -0.19500
F501        F  0.60324247  0.47467695  0.30094453    -0.19500
F502        F  0.60212129  0.42445716  0.23984450    -0.19900
F503        F  0.63912521  0.41074700  0.30839099    -0.22500
C504        C  0.55853921  0.11865333  0.35292483    -0.05400
C505        C  0.52163975  0.13818001  0.37418317     0.00500
C506        C  0.97915152  0.12491603  0.34545991    -0.08000
C507        C  0.98288675  0.09417634  0.30701643    -0.05400
C508        C  0.51395617  0.07746848  0.29710350     0.00500
C509        C  0.55534407  0.08864578  0.31390369    -0.07900
C510        C  0.59567300  0.06833279  0.29091235     0.62400
H511        H  0.58981304  0.12726366  0.36720641     0.13100
H512        H  0.95481746  0.08554428  0.28583435     0.13500
C513        C  0.93564224  0.14607634  0.35737460     0.62700
F514        F  0.63281874  0.08618491  0.30998789    -0.22500
F515        F  0.59573036  0.07561337  0.24083455    -0.19800
F516        F  0.59657925  0.02364084  0.29938658    -0.19500
F517        F  0.93784841  0.19114913  0.35262230    -0.19500
F518        F  0.92369068  0.13605263  0.40502536    -0.19900
F519        F  0.90374273  0.13127646  0.32640369    -0.22500
C520        C  0.98768556  0.13610578  0.66052803    -0.05400
C521        C  0.53118517  0.13931004  0.63168286     0.00500
C522        C  0.56595569  0.11775651  0.65501023    -0.08000
C523        C  0.55680478  0.08872782  0.69371929    -0.05400
C524        C  0.51430382  0.08195700  0.71002735     0.00500
C525        C  0.98372995  0.10680635  0.69978871    -0.07900
C526        C  0.94201130  0.10501089  0.72932945     0.62400
H527        H  0.96118951  0.15805326  0.65158936     0.13100
H528        H  0.58252484  0.06957252  0.71004052     0.13200
C529        C  0.61214452  0.12494642  0.63823114     0.62700
F530        F  0.91294151  0.13735015  0.71537481    -0.22500
F531        F  0.95059642  0.11091370  0.77862640    -0.19800
F532        F  0.92289630  0.06465450  0.72259368    -0.19500
F533        F  0.62269018  0.16862812  0.64439247    -0.19500
F534        F  0.61664922  0.11372645  0.58915418    -0.19900
F535        F  0.64109794  0.09979884  0.66468352    -0.22500
C536        C  0.56311461  0.41556582  0.69162314    -0.05400
C537        C  0.52055161  0.42527735  0.70642383     0.00500
C538        C  0.97449940  0.39247118  0.70123858    -0.08000
C539        C  0.97770428  0.36244652  0.66192393    -0.05400
C540        C  0.53703887  0.36530422  0.62967598     0.00500
C541        C  0.57204563  0.38530692  0.65350189    -0.07900
C542        C  0.61822502  0.37504551  0.63799760     0.62400
H543        H  0.58913453  0.43321343  0.70879649     0.13100
H544        H  0.95170438  0.33990009  0.65480451     0.13200
C545        C  0.93483105  0.39345206  0.73439413     0.62700
F546        F  0.64745691  0.39940994  0.66449480    -0.22500
F547        F  0.62390679  0.38446666  0.58877092    -0.19800
F548        F  0.62726605  0.33101981  0.64547568    -0.19500
F549        F  0.91483614  0.43426096  0.73244915    -0.19500
F550        F  0.94697095  0.38517053  0.78219387    -0.19900
F551        F  0.90517955  0.36210373  0.72080866    -0.22500
C552        C  0.87574832  0.14770453  0.03980430    -0.05400
C553        C  0.88883621  0.12747958  0.99558342     0.00500
C554        C  0.87628740  0.14665036  0.95044623    -0.08000
C555        C  0.84765369  0.18301525  0.95155760    -0.05400
C556        C  0.83222939  0.20128102  0.99597416     0.00500
C557        C  0.84779886  0.18440810  0.04083688    -0.07900
C558        C  0.83522269  0.20516487  0.08966630     0.62400
H559        H  0.88711358  0.13390766  0.07391711     0.13100
H560        H  0.83500090  0.19593165  0.91758084     0.13200
C561        C  0.89292977  0.12913159  0.90133710     0.62700
F562        F  0.85103441  0.24728764  0.09126708    -0.22500
F563        F  0.85231375  0.18240652  0.12890834    -0.19800
F564        F  0.79086745  0.20625219  0.09535720    -0.19500
F565        F  0.87485468  0.08874090  0.89161317    -0.19500
F566        F  0.93739433  0.12470692  0.90221533    -0.19900
F567        F  0.88263193  0.15711859  0.86322761    -0.22500
C568        C  0.62969241  0.35822502  0.94953814    -0.05400
C569        C  0.61003631  0.36828618  0.99503257     0.00500
C570        C  0.61925739  0.34109257  0.03607709    -0.08000
C571        C  0.64901214  0.30599901  0.03016702    -0.05400
C572        C  0.66963368  0.29692883  0.98513152     0.00500
C573        C  0.65952481  0.32319687  0.94385720    -0.07900
C574        C  0.68076505  0.31473923  0.89409652     0.62400
H575        H  0.62194725  0.37863186  0.91835975     0.13100
H576        H  0.65868614  0.28703536  0.06172259     0.13200
C577        C  0.59992402  0.35017547  0.08673663     0.62700
F578        F  0.66539513  0.34310417  0.85862206    -0.22500
F579        F  0.67226457  0.27235744  0.87907223    -0.19800
F580        F  0.72487420  0.32015051  0.89680987    -0.19500
F581        F  0.55623697  0.34156085  0.08654316    -0.19500
F582        F  0.60633790  0.39357658  0.09987975    -0.19900
F583        F  0.61854547  0.32410574  0.12238280    -0.22500
C584        C  0.63765352  0.12963040  0.95292033    -0.05400
C585        C  0.61515487  0.12407662  0.99751852     0.00500
C586        C  0.62304920  0.15406283  0.03672636    -0.08000
C587        C  0.65242848  0.18856235  0.02913033    -0.05400
C588        C  0.67477321  0.19399104  0.98453057     0.00500
C589        C  0.66753575  0.16353723  0.94575887    -0.07900
C590        C  0.69105047  0.16393651  0.89651658     0.62400
H591        H  0.63206581  0.10688513  0.92291891     0.13100
H592        H  0.66017869  0.21026865  0.05925799     0.13200
C593        C  0.60274463  0.14870561  0.08738273     0.62700
F594        F  0.66113463  0.16549820  0.85922698    -0.22500
F595        F  0.71530069  0.12569299  0.89143084    -0.19800
F596        F  0.71825280  0.19915520  0.89084399    -0.19500
F597        F  0.60913382  0.10614682  0.10359096    -0.19500
F598        F  0.55905633  0.15806337  0.08557510    -0.19900
F599        F  0.62060021  0.17671754  0.12166169    -0.22500
C600        C  0.85779390  0.36832174  0.04094989    -0.05400
C601        C  0.88363255  0.37484199  0.99929075     0.00500
C602        C  0.88225940  0.34427268  0.95992874    -0.08000
C603        C  0.85361373  0.30867630  0.96307699    -0.05400
C604        C  0.82595004  0.30343264  0.00375548     0.00500
C605        C  0.82845859  0.33362552  0.04382859    -0.07900
C606        C  0.80082677  0.33175404  0.09026979     0.62400
H607        H  0.85989073  0.39133439  0.07139135     0.13100
H608        H  0.85057107  0.28626434  0.93229579     0.13200
C609        C  0.91028128  0.34984252  0.91445517     0.62700
F610        F  0.82740371  0.33033598  0.13073816    -0.22500
F611        F  0.77434457  0.29565468  0.09225158    -0.19800
F612        F  0.77527771  0.36923880  0.09351319    -0.19500
F613        F  0.95303716  0.35373531  0.92760481    -0.19500
F614        F  0.89742284  0.38726446  0.88980724    -0.19900
F615        F  0.90720338  0.31436693  0.88266343    -0.22500
Zn616      Zn  0.94553513  0.49969821  0.96092929     1.49700
Zn617      Zn  0.99639260  0.55233039  0.04487262     1.49400
Zn618      Zn  0.49680284  0.94795619  0.04382812     1.49100
Zn619      Zn  0.55132153  0.99936206  0.96043461     1.49500
O620        O  0.50001962  0.49916463  0.00051304    -1.83700
O621        O  0.90948594  0.55546385  0.97186582    -0.74400
O622        O  0.99394950  0.53677044  0.11745472    -0.74200
O623        O  0.94414198  0.91110280  0.03049817    -0.73700
O624        O  0.94566112  0.59106234  0.02932148    -0.74400
O625        O  0.91159972  0.94475623  0.96874293    -0.74000
O626        O  0.49792601  0.96404718  0.11554904    -0.74600
O627        O  0.58510444  0.94197798  0.97119896    -0.73900
O628        O  0.54971520  0.59070884  0.02715777    -0.74700
O629        O  0.54713887  0.90878652  0.02936952    -0.74100
O630        O  0.58938672  0.55421264  0.97215253    -0.74600
O631        O  0.53550789  0.00302632  0.88844401    -0.74500
O632        O  0.96321318  0.50053123  0.88972221    -0.74300
C633        C  0.91466465  0.58914378  0.99918521     0.77500
C634        C  0.00296667  0.99816199  0.13773859     0.78000
C635        C  0.91437456  0.91288900  0.99885350     0.77000
C636        C  0.57909431  0.90946245  0.99992385     0.77400
C637        C  0.58263871  0.58831273  0.99906926     0.78500
C638        C  0.50274597  0.50095016  0.86499059     0.77500
C639        C  0.78680718  0.77594028  0.99869693     0.02700
C640        C  0.78914876  0.72939060  0.99592047     0.02600
C641        C  0.75085008  0.70554177  0.99110149    -0.17900
C642        C  0.71034416  0.72621518  0.98771025     0.02700
C643        C  0.70823960  0.77273645  0.98914340     0.02600
C644        C  0.74634953  0.79653304  0.99463927    -0.17900
H645        H  0.74437627  0.83215894  0.99610714     0.04700
H646        H  0.75261742  0.66990191  0.99013053     0.04700
C647        C  0.49917990  0.00330534  0.81252470     0.80600
N648        N  0.49289794  0.53936488  0.78706055    -0.77700
C649        C  0.49259631  0.53935590  0.73716150     0.83100
N650        N  0.49354671  0.00597734  0.71348222    -0.77600
C651        C  0.48431673  0.96850162  0.73741858     0.83200
N652        N  0.48714348  0.96700528  0.78702786    -0.79300
C653        C  0.50060485  0.00023338  0.19248491     0.80600
N654        N  0.50055895  0.53908985  0.21743729    -0.77700
C655        C  0.50272461  0.53901984  0.26728504     0.83100
N656        N  0.50280949  0.99967003  0.29182657    -0.77600
C657        C  0.49721391  0.96168919  0.26715655     0.83200
N658        N  0.49604518  0.96170252  0.21730320    -0.79300
N659        N  0.47845004  0.75122139  0.42926704    -0.36200
N660        N  0.47343494  0.82033904  0.50378693    -0.56800
N661        N  0.47367995  0.75306519  0.57882373    -0.36200
N662        N  0.47279996  0.68399584  0.50436748    -0.56800
C663        C  0.47085707  0.78671757  0.40098820     0.27400
C664        C  0.47131668  0.71532530  0.40123383     0.27400
C665        C  0.46377048  0.78921475  0.60583446     0.27400
C666        C  0.46348410  0.71786525  0.60631114     0.27400
C667        C  0.48252310  0.84493256  0.46400500     0.36000
C668        C  0.48066862  0.84584028  0.54353818     0.36000
C669        C  0.48151443  0.65798329  0.46502765     0.36000
C670        C  0.47877438  0.65899721  0.54457040     0.36000
C671        C  0.45902832  0.77320767  0.35435410    -0.21500
C672        C  0.45945272  0.72814438  0.35446868    -0.21500
C673        C  0.44700490  0.77687937  0.65104275    -0.21500
C674        C  0.44698262  0.73173688  0.65141050    -0.21500
C675        C  0.49503560  0.88658922  0.47849757    -0.22500
C676        C  0.49372957  0.88720316  0.52901883    -0.22500
C677        C  0.49223986  0.61591782  0.48025282    -0.22500
C678        C  0.49028993  0.61650116  0.53073206    -0.22500
C679        C  0.47731718  0.83088119  0.41489405    -0.17900
C680        C  0.47791811  0.67132105  0.41559413    -0.17900
C681        C  0.47264773  0.67379650  0.59349116    -0.17900
C682        C  0.47349345  0.83270241  0.59255996    -0.17900
H683        H  0.45149672  0.79369279  0.32318920     0.15000
H684        H  0.45224803  0.70719301  0.32344115     0.15000
H685        H  0.43700767  0.79817457  0.68115268     0.15000
H686        H  0.43686972  0.71146188  0.68183137     0.15000
H687        H  0.50370274  0.91377692  0.45509336     0.13300
H688        H  0.50130074  0.91490823  0.55235743     0.13300
H689        H  0.50022455  0.58771432  0.45736356     0.13300
H690        H  0.49664904  0.58886621  0.55450907     0.13300
H691        H  0.49061381  0.75145089  0.46439211     0.26600
H692        H  0.48997006  0.75237823  0.54548586     0.26600
C693        C  0.95865361  0.91712915  0.32035807    -0.05400
C694        C  0.49012707  0.92212840  0.29635615     0.00500
C695        C  0.52438837  0.89302957  0.30760971    -0.08000
C696        C  0.51894957  0.86379087  0.34682919    -0.05400
C697        C  0.48064494  0.86343387  0.37478202     0.00500
C698        C  0.95263666  0.88929031  0.36061728    -0.07900
C699        C  0.91013302  0.89023975  0.38885825     0.62400
H700        H  0.93401224  0.94118200  0.31124264     0.13100
H701        H  0.54476418  0.84130315  0.35657664     0.13200
C702        C  0.56669489  0.89386259  0.27913371     0.62700
F703        F  0.88008295  0.91772157  0.36715391    -0.22500
F704        F  0.91669391  0.90510629  0.43618420    -0.19800
F705        F  0.89299257  0.84854686  0.39053332    -0.19500
F706        F  0.58522505  0.93473549  0.28351642    -0.19500
F707        F  0.55917634  0.88515694  0.23010377    -0.19900
F708        F  0.59586092  0.86283095  0.29608967    -0.22500
C709        C  0.52224901  0.63599582  0.35004873    -0.05400
C710        C  0.48274359  0.63809852  0.37570420     0.00500
C711        C  0.93966665  0.61189556  0.36835167    -0.08000
C712        C  0.94182315  0.58114412  0.32980792    -0.05400
C713        C  0.49493192  0.57853225  0.29733015     0.00500
C714        C  0.52895689  0.60644406  0.31076829    -0.07900
C715        C  0.57219073  0.60423909  0.28420874     0.62400
H716        H  0.54789527  0.65752147  0.36145651     0.13100
H717        H  0.91539183  0.55880308  0.32397924     0.13500
C718        C  0.89859754  0.61724091  0.39886026     0.62700
F719        F  0.60056103  0.63513258  0.30203550    -0.22500
F720        F  0.56631098  0.61200305  0.23475084    -0.19800
F721        F  0.59073788  0.56312768  0.28992157    -0.19500
F722        F  0.88286565  0.65973217  0.39451394    -0.19500
F723        F  0.90679221  0.60885766  0.44768536    -0.19900
F724        F  0.86681697  0.58881732  0.38364732    -0.22500
C725        C  0.94939502  0.61498109  0.64336708    -0.05400
C726        C  0.47742622  0.64195839  0.63407481     0.00500
C727        C  0.51777529  0.63460607  0.65662402    -0.08000
C728        C  0.52054270  0.60316431  0.69394335    -0.05400
C729        C  0.48445753  0.57923621  0.70876261     0.00500
C730        C  0.94778759  0.58469769  0.68186270    -0.07900
C731        C  0.90626517  0.55956100  0.68919966     0.62400
H732        H  0.92137274  0.61974557  0.62043386     0.13100
H733        H  0.55141153  0.59535968  0.71020609     0.13200
C734        C  0.55782508  0.65910422  0.64040130     0.62700
F735        F  0.87160724  0.58864844  0.68954631    -0.22500
F736        F  0.90515604  0.53679642  0.73295520    -0.19800
F737        F  0.90156478  0.53012523  0.65081333    -0.19500
F738        F  0.55162041  0.70367868  0.64789127    -0.19500
F739        F  0.56610465  0.65126260  0.59113184    -0.19900
F740        F  0.59388833  0.64612363  0.66635371    -0.22500
C741        C  0.51207075  0.90098229  0.70036685    -0.05400
C742        C  0.47651029  0.92899619  0.70820462     0.00500
C743        C  0.95077855  0.91901031  0.68212211    -0.08000
C744        C  0.95122796  0.88859948  0.64339066    -0.05400
C745        C  0.47572204  0.86590099  0.63252343     0.00500
C746        C  0.51255898  0.86952212  0.66250126    -0.07900
C747        C  0.55298105  0.84199904  0.65286281     0.62400
H748        H  0.54060697  0.90593537  0.72224149     0.13100
H749        H  0.92254861  0.88448955  0.62146256     0.13200
C750        C  0.90941987  0.94516614  0.69113279     0.62700
F751        F  0.58540370  0.85177948  0.68559343    -0.22500
F752        F  0.56829742  0.84989896  0.60591690    -0.19800
F753        F  0.54390813  0.79790654  0.65740742    -0.19500
F754        F  0.90072936  0.97054009  0.65039280    -0.19500
F755        F  0.91119224  0.97241526  0.73181482    -0.19900
F756        F  0.87575471  0.91642911  0.69844966    -0.22500
C757        C  0.87402543  0.64955181  0.04039320    -0.05400
C758        C  0.88476673  0.62761523  0.99634303     0.00500
C759        C  0.86928441  0.64469071  0.95135235    -0.08000
C760        C  0.84225636  0.68227788  0.95260287    -0.05400
C761        C  0.82945211  0.70253918  0.99700057     0.00500
C762        C  0.84600201  0.68623385  0.04166964    -0.07900
C763        C  0.83355250  0.70690509  0.09064792     0.62400
H764        H  0.88686075  0.63676854  0.07431679     0.13100
H765        H  0.82810915  0.69429423  0.91898470     0.13200
C766        C  0.88034979  0.62315267  0.90226127     0.62700
F767        F  0.84858673  0.74934604  0.09216424    -0.22500
F768        F  0.85124750  0.68437292  0.12970951    -0.19800
F769        F  0.78921724  0.70721318  0.09679797    -0.19500
F770        F  0.86058580  0.58274992  0.89918296    -0.19500
F771        F  0.92454555  0.61753833  0.89746244    -0.19900
F772        F  0.86645509  0.64831709  0.86319535    -0.22500
C773        C  0.62721528  0.85948782  0.95204423    -0.05400
C774        C  0.60892663  0.87080710  0.99782838     0.00500
C775        C  0.61932944  0.84500706  0.03963217    -0.08000
C776        C  0.64880615  0.80973349  0.03386348    -0.05400
C777        C  0.66793720  0.79936766  0.98833797     0.00500
C778        C  0.65674527  0.82434723  0.94654124    -0.07900
C779        C  0.67622421  0.81417430  0.89630428     0.62400
H780        H  0.61841186  0.87882041  0.92038240     0.13100
H781        H  0.65934091  0.79152348  0.06564849     0.13200
C782        C  0.60153789  0.85565342  0.09069908     0.62700
F783        F  0.66086000  0.84239949  0.86069516    -0.22500
F784        F  0.66564404  0.77192646  0.88281121    -0.19800
F785        F  0.72059525  0.81790926  0.89720086    -0.19500
F786        F  0.55785901  0.84707413  0.09268534    -0.19500
F787        F  0.60833625  0.89941350  0.10191354    -0.19900
F788        F  0.62125649  0.83066875  0.12655606    -0.22500
C789        C  0.63562221  0.63304926  0.95212387    -0.05400
C790        C  0.61270828  0.62661297  0.99628030     0.00500
C791        C  0.61896608  0.65693025  0.03571921    -0.08000
C792        C  0.64844134  0.69154921  0.02935556    -0.05400
C793        C  0.67211281  0.69700717  0.98569833     0.00500
C794        C  0.66535183  0.66729463  0.94612001    -0.07900
C795        C  0.68899129  0.66913186  0.89700004     0.62400
H796        H  0.63066360  0.61060622  0.92168435     0.13100
H797        H  0.65520213  0.71334539  0.05974998     0.13200
C798        C  0.59668787  0.65198464  0.08540349     0.62700
F799        F  0.65913830  0.67364112  0.85993697    -0.22500
F800        F  0.71186016  0.63031340  0.88960668    -0.19800
F801        F  0.71754177  0.70345645  0.89334991    -0.19500
F802        F  0.60352873  0.60996423  0.10301834    -0.19500
F803        F  0.55292001  0.66004918  0.08101954    -0.19900
F804        F  0.61222009  0.68120219  0.11994819    -0.22500
C805        C  0.85629435  0.87133431  0.03937541    -0.05400
C806        C  0.88272712  0.87670816  0.99796352     0.00500
C807        C  0.88109206  0.84548633  0.95920495    -0.08000
C808        C  0.85208662  0.81013967  0.96299188    -0.05400
C809        C  0.82445709  0.80555687  0.00384546     0.00500
C810        C  0.82691328  0.83667926  0.04304881    -0.07900
C811        C  0.79880441  0.83597766  0.08916899     0.62400
H812        H  0.85826043  0.89500301  0.06919316     0.13100
H813        H  0.84903814  0.78713421  0.93276579     0.13200
C814        C  0.90972920  0.84976394  0.91402382     0.62700
F815        F  0.82476113  0.83823544  0.13009927    -0.22500
F816        F  0.77422395  0.79862218  0.09330744    -0.19800
F817        F  0.77139266  0.87216072  0.08931214    -0.19500
F818        F  0.95253739  0.85040996  0.92773370    -0.19500
F819        F  0.89971220  0.88832226  0.88987331    -0.19900
F820        F  0.90446585  0.81514585  0.88150070    -0.22500
loop_ 
_geom_bond_atom_site_label_1 
_geom_bond_atom_site_label_2 
_geom_bond_distance 
_geom_bond_site_symmetry_2 
_ccdc_geom_bond_type 
Zn1           O6   2.044   1_565  S
Zn1          O17   2.014       .  S
Zn1         O215   2.065       .  S
Zn1         O415   1.971   1_556  S
Zn2           O7   2.034       .  S
Zn2           O9   2.009       .  S
Zn2         O423   2.021       .  S
Zn2         O415   1.962   1_545  S
Zn3          O11   2.015       .  S
Zn3          O14   1.997   1_655  S
Zn3         O418   2.005       .  S
Zn3         O210   1.959       .  S
Zn4          O12   2.055       .  S
Zn4          O16   2.032       .  S
Zn4         O220   2.065       .  S
Zn4         O210   1.976   1_456  S
O5         Zn411   1.967   1_554  S
O5         Zn412   1.956   1_565  S
O5         Zn208   1.953       .  S
O5         Zn209   1.976   1_654  S
O6           C18   1.277       .  A
O7          C224   1.276       .  A
O8         Zn413   2.020       .  S
O8           C20   1.273   1_554  A
O9           C18   1.274   1_554  A
O10        Zn206   2.058       .  S
O10          C20   1.277       .  A
O11         C429   1.273       .  A
O12          C21   1.279   1_556  A
O13        Zn412   2.008   1_455  S
O13          C22   1.269       .  A
O14          C21   1.269       .  A
O15        Zn209   2.059   1_545  S
O15          C22   1.279   1_556  A
O16         C228   1.274   1_455  A
O17         C433   1.272   1_565  A
C18         C143   1.491       .  S
C19         O212   1.275       .  A
C19         O421   1.276       .  A
C19         C448   1.476       .  S
C20         C191   1.486       .  S
C21         C159   1.491       .  S
C22         C175   1.503   1_554  S
C23         O221   1.273       .  A
C23         O427   1.271   1_445  A
C23         C237   1.456       .  S
C24         C194   1.489       .  S
C24          C25   1.420   1_554  A
C24          C29   1.402   1_554  A
C25         C146   1.489       .  S
C25          C26   1.405       .  A
C26          C27   1.404       .  A
C26          H31   1.086       .  S
C27         C178   1.491       .  S
C27          C28   1.418       .  A
C28         C162   1.485       .  S
C28          C29   1.402       .  A
C29          H30   1.086       .  S
C32         C228   1.461       .  S
C32          N37   1.362   1_655  A
C32         N238   1.363       .  A
N33          C34   1.359       .  A
N33         C237   1.363       .  A
C34         C114   1.462       .  S
C34         N240   1.347       .  A
N35          C36   1.349   1_655  A
N35         C239   1.348       .  A
C36         C127   1.463       .  S
C36          N37   1.358       .  A
C38         C429   1.473       .  S
C38          N43   1.366       .  A
C38         N244   1.363       .  A
N39          C40   1.359       .  A
N39         C243   1.363   1_545  A
C40          C98   1.462       .  S
C40         N246   1.346   1_545  A
N41          C42   1.346       .  A
N41         C245   1.347       .  A
C42          C79   1.465       .  S
C42          N43   1.359       .  A
N44          C49   1.350       .  A
N44          C48   1.350       .  A
N44          H76   1.037   1_455  S
N45          C52   1.351   1_455  A
N45          C53   1.351       .  A
N46          C51   1.349       .  A
N46          C50   1.349       .  A
N46          H77   1.035       .  S
N47          C54   1.350       .  A
N47          C55   1.350       .  A
C48          C56   1.388       .  A
C48          C64   1.410       .  A
C49          C65   1.409       .  A
C49          C57   1.387       .  A
C50          C58   1.388       .  A
C50          C67   1.410       .  A
C51          C66   1.409       .  A
C51          C59   1.387       .  A
C52          C64   1.415   1_655  A
C52          C60   1.386       .  A
C53          C67   1.415       .  A
C53          C61   1.387   1_455  A
C54          C62   1.386       .  A
C54          C65   1.411       .  A
C55          C63   1.387       .  A
C55          C66   1.413       .  A
C56          C57   1.371       .  A
C56          H68   1.082       .  S
C57          H69   1.082       .  S
C58          C59   1.371       .  A
C58          H70   1.082       .  S
C59          H71   1.082       .  S
C60          C61   1.377       .  A
C60          H72   1.082       .  S
C61          H73   1.082       .  S
C62          C63   1.376       .  A
C62          H74   1.082   1_455  S
C63          H75   1.082       .  S
C64          C82   1.483   1_455  S
C65          C95   1.481       .  S
C66         C111   1.481       .  S
C67         C130   1.483       .  S
C78          C83   1.404       .  A
C78         C489   1.401       .  A
C78          H85   1.083       .  S
C79          C80   1.414   1_655  A
C79         C488   1.401       .  A
C80          C81   1.403       .  A
C80          C87   1.517       .  S
C81          C82   1.401   1_455  A
C81          H86   1.083       .  S
C82         C493   1.415       .  A
C83         C492   1.416       .  A
C83          C84   1.519       .  S
C84          F88   1.384       .  S
C84          F89   1.383       .  S
C84          F90   1.383       .  S
C87          F91   1.382       .  S
C87          F92   1.383       .  S
C87          F93   1.385       .  S
C94          C95   1.402       .  A
C94          C99   1.404       .  A
C94         H101   1.083       .  S
C95         C506   1.416   1_455  A
C96          C97   1.404       .  A
C96         C505   1.415       .  A
C96         C103   1.518       .  S
C97         C508   1.400       .  A
C97         H102   1.083       .  S
C98          C99   1.414       .  A
C98         C507   1.399   1_455  A
C99         C100   1.518       .  S
C100        F104   1.385       .  S
C100        F105   1.383       .  S
C100        F106   1.382       .  S
C103        F107   1.383       .  S
C103        F108   1.382       .  S
C103        F109   1.385       .  S
C110        C115   1.401       .  A
C110        C521   1.400       .  A
C110        H117   1.085       .  S
C111        C112   1.414       .  A
C111        C520   1.403   1_455  A
C112        C113   1.404       .  A
C112        C119   1.518       .  S
C113        C114   1.402       .  A
C113        H118   1.084       .  S
C114        C525   1.412   1_455  A
C115        C524   1.415       .  A
C115        C116   1.518       .  S
C116        F120   1.384       .  S
C116        F121   1.383       .  S
C116        F122   1.382       .  S
C119        F123   1.383       .  S
C119        F124   1.381       .  S
C119        F125   1.385       .  S
C126        C127   1.401       .  A
C126        C131   1.403       .  A
C126        H133   1.084       .  S
C127        C538   1.412   1_455  A
C128        C129   1.397       .  A
C128        C537   1.416       .  A
C128        C135   1.519       .  S
C129        C540   1.399       .  A
C129        H134   1.085       .  S
C130        C131   1.414       .  A
C130        C539   1.404   1_455  A
C131        C132   1.518       .  S
C132        F136   1.385       .  S
C132        F137   1.381       .  S
C132        F138   1.382       .  S
C135        F139   1.383       .  S
C135        F140   1.382       .  S
C135        F141   1.383       .  S
C142        C143   1.405   1_554  A
C142        C147   1.407       .  A
C142        H149   1.083       .  S
C143        C144   1.422       .  A
C144        C145   1.411       .  A
C144        C151   1.520       .  S
C145        C146   1.406       .  A
C145        H150   1.084       .  S
C146        C147   1.416   1_556  A
C147        C148   1.515       .  S
C148        F152   1.378       .  S
C148        F153   1.384       .  S
C148        F154   1.383       .  S
C151        F155   1.383       .  S
C151        F156   1.383       .  S
C151        F157   1.385       .  S
C158        C159   1.404   1_556  A
C158        C163   1.408       .  A
C158        H165   1.083       .  S
C159        C160   1.424       .  A
C160        C161   1.410       .  A
C160        C167   1.521       .  S
C161        C162   1.402   1_554  A
C161        H166   1.083       .  S
C162        C163   1.417       .  A
C163        C164   1.518       .  S
C164        F168   1.385       .  S
C164        F169   1.380       .  S
C164        F170   1.382       .  S
C167        F171   1.383       .  S
C167        F172   1.384       .  S
C167        F173   1.385       .  S
C174        C175   1.406       .  A
C174        C179   1.408       .  A
C174        H181   1.084       .  S
C175        C176   1.428   1_556  A
C176        C177   1.414       .  A
C176        C183   1.522       .  S
C177        C178   1.402   1_554  A
C177        H182   1.081       .  S
C178        C179   1.422       .  A
C179        C180   1.521       .  S
C180        F184   1.383       .  S
C180        F185   1.383       .  S
C180        F186   1.381       .  S
C183        F187   1.384       .  S
C183        F188   1.383       .  S
C183        F189   1.385       .  S
C190        C191   1.399   1_554  A
C190        C195   1.405       .  A
C190        H197   1.085       .  S
C191        C192   1.419       .  A
C192        C193   1.414       .  A
C192        C199   1.517       .  S
C193        C194   1.405   1_556  A
C193        H198   1.083       .  S
C194        C195   1.426       .  A
C195        C196   1.522       .  S
C196        F200   1.384       .  S
C196        F201   1.381       .  S
C196        F202   1.383       .  S
C199        F203   1.383       .  S
C199        F204   1.383       .  S
C199        F205   1.385       .  S
Zn206       O211   2.038       .  S
Zn206       O222   2.017       .  S
Zn206       O620   1.974   1_556  S
Zn207       O212   2.030       .  S
Zn207       O214   2.005       .  S
Zn207       O628   2.010       .  S
Zn207       O620   1.962       .  S
Zn208       O623   2.009       .  S
Zn208       O216   2.005   1_655  S
Zn208       O219   1.987   1_655  S
Zn209       O217   2.053       .  S
Zn209       O221   2.021   1_565  S
O210       Zn616   1.974   1_554  S
O210       Zn617   1.960       .  S
O211        C223   1.275       .  A
O213       Zn618   2.013       .  S
O213        C225   1.271       .  A
O214        C223   1.273   1_554  A
O215        C225   1.278   1_556  A
O216        C634   1.272       .  A
O217        C226   1.280   1_556  A
O218       Zn617   2.018   1_455  S
O218        C227   1.271       .  A
O219        C226   1.268       .  A
O220        C227   1.280   1_556  A
O222        C638   1.272       .  A
C223        C348   1.491       .  S
C224        O626   1.272   1_545  A
C224        C653   1.472       .  S
C225        C396   1.487       .  S
C226        C364   1.486   1_554  S
C227        C380   1.507   1_554  S
C228        O632   1.271       .  A
C229        C399   1.492       .  S
C229        C230   1.421       .  A
C229        C234   1.402   1_554  A
C230        C351   1.488       .  S
C230        C231   1.407   1_554  A
C231        C232   1.402       .  A
C231        H236   1.086       .  S
C232        C383   1.494       .  S
C232        C233   1.417       .  A
C233        C367   1.482       .  S
C233        C234   1.403       .  A
C234        H235   1.086   1_556  S
C237        N242   1.359   1_445  A
N238        C239   1.359       .  A
C239        C319   1.464       .  S
N240        C241   1.347   1_445  A
C241        C332   1.455       .  S
C241        N242   1.355       .  A
C243        C634   1.469       .  S
C243        N248   1.364       .  A
N244        C245   1.359       .  A
C245        C303   1.463       .  S
N246        C247   1.347       .  A
C247        C284   1.461   1_455  S
C247        N248   1.357       .  A
N249        C254   1.348       .  A
N249        C253   1.349       .  A
N249        H281   1.037       .  S
N250        C257   1.350       .  A
N250        C258   1.348       .  A
N251        C256   1.350       .  A
N251        C255   1.347       .  A
N251        H282   1.039   1_655  S
N252        C259   1.348       .  A
N252        C260   1.350       .  A
C253        C261   1.387       .  A
C253        C269   1.407       .  A
C254        C270   1.408       .  A
C254        C262   1.388       .  A
C255        C263   1.388       .  A
C255        C272   1.407       .  A
C256        C271   1.406       .  A
C256        C264   1.386       .  A
C257        C269   1.411       .  A
C257        C265   1.386   1_655  A
C258        C272   1.410       .  A
C258        C266   1.386   1_655  A
C259        C267   1.387       .  A
C259        C270   1.412       .  A
C260        C268   1.385   1_655  A
C260        C271   1.410       .  A
C261        C262   1.371       .  A
C261        H273   1.082       .  S
C262        H274   1.082       .  S
C263        C264   1.373       .  A
C263        H275   1.082       .  S
C264        H276   1.082       .  S
C265        C266   1.378       .  A
C265        H277   1.082       .  S
C266        H278   1.082       .  S
C267        C268   1.378   1_655  A
C267        H279   1.082   1_655  S
C268        H280   1.082       .  S
C269        C287   1.481       .  S
C270        C300   1.478       .  S
C271        C316   1.483       .  S
C272        C335   1.475       .  S
C283        C694   1.402       .  A
C283        C288   1.403       .  A
C283        H290   1.084       .  S
C284        C693   1.402       .  A
C284        C285   1.410   1_655  A
C285        C286   1.405       .  A
C285        C292   1.517       .  S
C286        C287   1.405   1_455  A
C286        H291   1.083       .  S
C287        C698   1.414       .  A
C288        C697   1.414       .  A
C288        C289   1.519       .  S
C289        F293   1.385       .  S
C289        F294   1.381       .  S
C289        F295   1.383       .  S
C292        F296   1.383       .  S
C292        F297   1.383       .  S
C292        F298   1.385       .  S
C299        C300   1.402   1_455  A
C299        C304   1.403       .  A
C299        H306   1.083       .  S
C300        C711   1.413       .  A
C301        C710   1.414       .  A
C301        C302   1.405       .  A
C301        C308   1.518       .  S
C302        C713   1.402       .  A
C302        H307   1.084       .  S
C303        C712   1.403       .  A
C303        C304   1.412   1_655  A
C304        C305   1.517       .  S
C305        F309   1.384       .  S
C305        F310   1.383       .  S
C305        F311   1.382       .  S
C308        F312   1.383       .  S
C308        F313   1.382       .  S
C308        F314   1.384       .  S
C315        C726   1.401       .  A
C315        C320   1.405       .  A
C315        H322   1.083       .  S
C316        C725   1.399       .  A
C316        C317   1.416   1_655  A
C317        C318   1.406       .  A
C317        C324   1.518       .  S
C318        C319   1.401   1_455  A
C318        H323   1.083       .  S
C319        C730   1.416       .  A
C320        C729   1.414       .  A
C320        C321   1.516       .  S
C321        F325   1.384       .  S
C321        F326   1.383       .  S
C321        F327   1.381       .  S
C324        F328   1.381       .  S
C324        F329   1.383       .  S
C324        F330   1.385       .  S
C331        C332   1.399   1_455  A
C331        C336   1.402       .  A
C331        H338   1.084       .  S
C332        C743   1.415       .  A
C333        C742   1.415       .  A
C333        C334   1.403       .  A
C333        C340   1.518       .  S
C334        C745   1.401       .  A
C334        H339   1.084       .  S
C335        C744   1.399       .  A
C335        C336   1.415   1_655  A
C336        C337   1.519       .  S
C337        F341   1.385       .  S
C337        F342   1.383       .  S
C337        F343   1.381       .  S
C340        F344   1.383       .  S
C340        F345   1.383       .  S
C340        F346   1.384       .  S
C347        C348   1.406   1_554  A
C347        C352   1.407       .  A
C347        H354   1.083       .  S
C348        C349   1.422       .  A
C349        C350   1.410       .  A
C349        C356   1.520       .  S
C350        C351   1.405   1_556  A
C350        H355   1.084       .  S
C351        C352   1.416       .  A
C352        C353   1.515       .  S
C353        F357   1.377       .  S
C353        F358   1.385       .  S
C353        F359   1.383       .  S
C356        F360   1.383       .  S
C356        F361   1.383       .  S
C356        F362   1.385       .  S
C363        C364   1.403       .  A
C363        C368   1.407       .  A
C363        H370   1.083       .  S
C364        C365   1.424   1_556  A
C365        C366   1.407       .  A
C365        C372   1.522       .  S
C366        C367   1.401   1_554  A
C366        H371   1.082       .  S
C367        C368   1.418       .  A
C368        C369   1.518       .  S
C369        F373   1.385       .  S
C369        F374   1.380       .  S
C369        F375   1.382       .  S
C372        F376   1.383       .  S
C372        F377   1.384       .  S
C372        F378   1.385       .  S
C379        C380   1.408       .  A
C379        C384   1.409       .  A
C379        H386   1.084       .  S
C380        C381   1.429   1_556  A
C381        C382   1.413       .  A
C381        C388   1.522       .  S
C382        C383   1.402   1_554  A
C382        H387   1.080       .  S
C383        C384   1.422       .  A
C384        C385   1.520       .  S
C385        F389   1.384       .  S
C385        F390   1.383       .  S
C385        F391   1.381       .  S
C388        F392   1.384       .  S
C388        F393   1.383       .  S
C388        F394   1.385       .  S
C395        C396   1.399       .  A
C395        C400   1.406       .  A
C395        H402   1.085       .  S
C396        C397   1.418   1_554  A
C397        C398   1.415       .  A
C397        C404   1.516       .  S
C398        C399   1.405   1_556  A
C398        H403   1.083       .  S
C399        C400   1.427       .  A
C400        C401   1.522       .  S
C401        F405   1.384       .  S
C401        F406   1.381       .  S
C401        F407   1.383       .  S
C404        F408   1.383       .  S
C404        F409   1.383       .  S
C404        F410   1.385       .  S
Zn411       O416   2.040   1_565  S
Zn411       O625   2.060       .  S
Zn411       O427   2.004       .  S
Zn412       O417   2.030   1_655  S
Zn412       O419   2.004       .  S
Zn413       O421   2.034       .  S
Zn413       O424   2.006       .  S
Zn413       O620   1.961       .  S
Zn414       O422   2.058       .  S
Zn414       O630   2.070       .  S
Zn414       O426   2.027       .  S
Zn414       O620   1.979   1_556  S
O415       Zn618   1.959       .  S
O415       Zn619   1.975   1_554  S
O416        C428   1.276       .  A
O417        C634   1.275   1_545  A
O418        C430   1.271       .  A
O419        C428   1.273   1_554  A
O420       Zn616   2.052       .  S
O420        C430   1.277   1_556  A
O422        C431   1.280       .  A
O423        C432   1.271       .  A
O424        C431   1.270   1_554  A
O425       Zn619   2.052   1_545  S
O425        C432   1.278   1_556  A
O426        C638   1.274       .  A
C428        C553   1.486       .  S
C429        O622   1.276       .  A
C430        C601   1.480   1_554  S
C431        C569   1.495       .  S
C432        C585   1.501   1_554  S
C433        O631   1.274       .  A
C433        C647   1.463       .  S
C434        C604   1.487   1_556  S
C434        C435   1.417       .  A
C434        C439   1.401       .  A
C435        C556   1.487       .  S
C435        C436   1.405       .  A
C436        C437   1.405       .  A
C436        H441   1.086       .  S
C437        C588   1.492       .  S
C437        C438   1.421       .  A
C438        C572   1.488       .  S
C438        C439   1.403       .  A
C439        H440   1.086       .  S
C442        C638   1.462       .  S
C442        N648   1.363       .  A
C442        N447   1.361       .  A
N443        C647   1.364       .  A
N443        C444   1.361       .  A
C444        C524   1.466       .  S
C444        N650   1.350       .  A
N445        C649   1.349       .  A
N445        C446   1.348       .  A
C446        C537   1.460       .  S
C446        N447   1.358       .  A
C448        N654   1.366       .  A
C448        N453   1.365       .  A
N449        C653   1.363       .  A
N449        C450   1.358       .  A
C450        C508   1.461       .  S
C450        N656   1.347   1_545  A
N451        C655   1.348       .  A
N451        C452   1.347       .  A
C452        C489   1.464       .  S
C452        N453   1.359       .  A
N454        C459   1.350       .  A
N454        C458   1.351       .  A
N454        H486   1.035       .  S
N455        C462   1.351       .  A
N455        C463   1.350       .  A
N456        C461   1.353       .  A
N456        C460   1.352       .  A
N456        H487   1.028       .  S
N457        C464   1.350       .  A
N457        C465   1.351       .  A
C458        C466   1.387       .  A
C458        C474   1.409       .  A
C459        C475   1.410       .  A
C459        C467   1.388       .  A
C460        C468   1.389       .  A
C460        C477   1.417       .  A
C461        C476   1.418       .  A
C461        C469   1.388       .  A
C462        C474   1.413       .  A
C462        C470   1.385       .  A
C463        C477   1.418       .  A
C463        C471   1.388       .  A
C464        C472   1.386       .  A
C464        C475   1.415       .  A
C465        C473   1.387       .  A
C465        C476   1.418       .  A
C466        C467   1.368       .  A
C466        H478   1.082       .  S
C467        H479   1.082       .  S
C468        C469   1.368       .  A
C468        H480   1.082       .  S
C469        H481   1.082       .  S
C470        C471   1.375       .  A
C470        H482   1.082       .  S
C471        H483   1.082       .  S
C472        C473   1.376       .  A
C472        H484   1.082       .  S
C473        H485   1.082       .  S
C474        C492   1.482       .  S
C475        C505   1.480       .  S
C476        C521   1.486       .  S
C477        C540   1.481       .  S
C488        C493   1.406       .  A
C488        H495   1.083       .  S
C489        C490   1.413       .  A
C490        C491   1.404       .  A
C490        C497   1.515       .  S
C491        C492   1.401       .  A
C491        H496   1.083       .  S
C493        C494   1.517       .  S
C494        F498   1.385       .  S
C494        F499   1.382       .  S
C494        F500   1.383       .  S
C497        F501   1.381       .  S
C497        F502   1.383       .  S
C497        F503   1.384       .  S
C504        C505   1.401       .  A
C504        C509   1.402       .  A
C504        H511   1.083       .  S
C506        C507   1.403       .  A
C506        C513   1.519       .  S
C507        H512   1.084       .  S
C508        C509   1.412       .  A
C509        C510   1.516       .  S
C510        F514   1.384       .  S
C510        F515   1.383       .  S
C510        F516   1.381       .  S
C513        F517   1.381       .  S
C513        F518   1.383       .  S
C513        F519   1.385       .  S
C520        C525   1.402       .  A
C520        H527   1.083       .  S
C521        C522   1.414       .  A
C522        C523   1.409       .  A
C522        C529   1.517       .  S
C523        C524   1.404       .  A
C523        H528   1.083       .  S
C525        C526   1.517       .  S
C526        F530   1.385       .  S
C526        F531   1.383       .  S
C526        F532   1.382       .  S
C529        F533   1.383       .  S
C529        F534   1.383       .  S
C529        F535   1.384       .  S
C536        C537   1.403       .  A
C536        C541   1.407       .  A
C536        H543   1.083       .  S
C538        C539   1.405       .  A
C538        C545   1.518       .  S
C539        H544   1.083       .  S
C540        C541   1.413       .  A
C541        C542   1.517       .  S
C542        F546   1.384       .  S
C542        F547   1.383       .  S
C542        F548   1.383       .  S
C545        F549   1.383       .  S
C545        F550   1.383       .  S
C545        F551   1.384       .  S
C552        C553   1.403   1_554  A
C552        C557   1.406       .  A
C552        H559   1.083       .  S
C553        C554   1.421       .  A
C554        C555   1.411       .  A
C554        C561   1.520       .  S
C555        C556   1.405       .  A
C555        H560   1.084       .  S
C556        C557   1.416   1_556  A
C557        C558   1.514       .  S
C558        F562   1.379       .  S
C558        F563   1.384       .  S
C558        F564   1.382       .  S
C561        F565   1.382       .  S
C561        F566   1.384       .  S
C561        F567   1.385       .  S
C568        C569   1.405       .  A
C568        C573   1.410       .  A
C568        H575   1.083       .  S
C569        C570   1.425   1_556  A
C570        C571   1.410       .  A
C570        C577   1.521       .  S
C571        C572   1.401   1_554  A
C571        H576   1.082       .  S
C572        C573   1.419       .  A
C573        C574   1.519       .  S
C574        F578   1.385       .  S
C574        F579   1.380       .  S
C574        F580   1.382       .  S
C577        F581   1.383       .  S
C577        F582   1.384       .  S
C577        F583   1.385       .  S
C584        C585   1.406       .  A
C584        C589   1.408       .  A
C584        H591   1.084       .  S
C585        C586   1.426   1_556  A
C586        C587   1.413       .  A
C586        C593   1.521       .  S
C587        C588   1.403   1_554  A
C587        H592   1.081       .  S
C588        C589   1.422       .  A
C589        C590   1.520       .  S
C590        F594   1.384       .  S
C590        F595   1.384       .  S
C590        F596   1.380       .  S
C593        F597   1.384       .  S
C593        F598   1.382       .  S
C593        F599   1.385       .  S
C600        C601   1.398   1_554  A
C600        C605   1.404       .  A
C600        H607   1.085       .  S
C601        C602   1.416       .  A
C602        C603   1.412       .  A
C602        C609   1.517       .  S
C603        C604   1.405   1_556  A
C603        H608   1.083       .  S
C604        C605   1.426       .  A
C605        C606   1.522       .  S
C606        F610   1.384       .  S
C606        F611   1.380       .  S
C606        F612   1.383       .  S
C609        F613   1.383       .  S
C609        F614   1.383       .  S
C609        F615   1.385       .  S
Zn616       O621   2.040       .  S
Zn616       O632   2.010       .  S
Zn617       O622   2.037       .  S
Zn617       O624   2.005       .  S
Zn618       O626   2.012       .  S
Zn618       O629   1.987       .  S
Zn619       O627   2.050       .  S
Zn619       O631   2.030   1_565  S
O621        C633   1.276       .  A
O623        C635   1.271   1_554  A
O624        C633   1.272   1_554  A
O625        C635   1.277       .  A
O627        C636   1.280       .  A
O628        C637   1.270   1_554  A
O629        C636   1.268   1_554  A
O630        C637   1.281       .  A
C633        C758   1.488       .  S
C635        C806   1.484       .  S
C636        C774   1.488       .  S
C637        C790   1.503       .  S
C639        C809   1.491   1_556  S
C639        C640   1.419       .  A
C639        C644   1.401       .  A
C640        C761   1.486       .  S
C640        C641   1.406       .  A
C641        C642   1.402       .  A
C641        H646   1.086       .  S
C642        C793   1.491       .  S
C642        C643   1.417       .  A
C643        C777   1.482       .  S
C643        C644   1.402       .  A
C644        H645   1.086       .  S
C647        N652   1.360   1_545  A
N648        C649   1.359       .  A
C649        C729   1.464       .  S
N650        C651   1.350   1_545  A
C651        C742   1.462       .  S
C651        N652   1.356       .  A
C653        N658   1.365   1_545  A
N654        C655   1.360       .  A
C655        C713   1.467       .  S
N656        C657   1.347       .  A
C657        C694   1.465       .  S
C657        N658   1.359       .  A
N659        C664   1.351       .  A
N659        C663   1.351       .  A
N659        H691   1.032       .  S
N660        C667   1.350       .  A
N660        C668   1.351       .  A
N661        C666   1.350       .  A
N661        C665   1.350       .  A
N661        H692   1.034       .  S
N662        C669   1.351       .  A
N662        C670   1.351       .  A
C663        C671   1.387       .  A
C663        C679   1.411       .  A
C664        C680   1.411       .  A
C664        C672   1.387       .  A
C665        C673   1.387       .  A
C665        C682   1.410       .  A
C666        C681   1.409       .  A
C666        C674   1.387       .  A
C667        C679   1.413       .  A
C667        C675   1.387       .  A
C668        C682   1.412       .  A
C668        C676   1.386       .  A
C669        C677   1.386       .  A
C669        C680   1.414       .  A
C670        C678   1.386       .  A
C670        C681   1.414       .  A
C671        C672   1.372       .  A
C671        H683   1.082       .  S
C672        H684   1.082       .  S
C673        C674   1.374       .  A
C673        H685   1.082       .  S
C674        H686   1.082       .  S
C675        C676   1.376       .  A
C675        H687   1.082       .  S
C676        H688   1.082       .  S
C677        C678   1.376       .  A
C677        H689   1.082       .  S
C678        H690   1.082       .  S
C679        C697   1.483       .  S
C680        C710   1.485       .  S
C681        C726   1.482       .  S
C682        C745   1.483       .  S
C693        C698   1.402       .  A
C693        H700   1.084       .  S
C694        C695   1.412       .  A
C695        C696   1.405       .  A
C695        C702   1.517       .  S
C696        C697   1.404       .  A
C696        H701   1.083       .  S
C698        C699   1.518       .  S
C699        F703   1.385       .  S
C699        F704   1.382       .  S
C699        F705   1.382       .  S
C702        F706   1.382       .  S
C702        F707   1.383       .  S
C702        F708   1.385       .  S
C709        C710   1.404       .  A
C709        C714   1.406       .  A
C709        H716   1.083       .  S
C711        C712   1.403       .  A
C711        C718   1.519       .  S
C712        H717   1.084       .  S
C713        C714   1.412       .  A
C714        C715   1.517       .  S
C715        F719   1.385       .  S
C715        F720   1.383       .  S
C715        F721   1.381       .  S
C718        F722   1.383       .  S
C718        F723   1.382       .  S
C718        F724   1.384       .  S
C725        C730   1.401       .  A
C725        H732   1.085       .  S
C726        C727   1.416       .  A
C727        C728   1.403       .  A
C727        C734   1.519       .  S
C728        C729   1.399       .  A
C728        H733   1.084       .  S
C730        C731   1.517       .  S
C731        F735   1.384       .  S
C731        F736   1.383       .  S
C731        F737   1.383       .  S
C734        F738   1.382       .  S
C734        F739   1.382       .  S
C734        F740   1.384       .  S
C741        C742   1.399       .  A
C741        C746   1.403       .  A
C741        H748   1.084       .  S
C743        C744   1.399       .  A
C743        C750   1.518       .  S
C744        H749   1.085       .  S
C745        C746   1.416       .  A
C746        C747   1.519       .  S
C747        F751   1.385       .  S
C747        F752   1.383       .  S
C747        F753   1.381       .  S
C750        F754   1.383       .  S
C750        F755   1.382       .  S
C750        F756   1.383       .  S
C757        C758   1.404   1_554  A
C757        C762   1.407       .  A
C757        H764   1.083       .  S
C758        C759   1.420       .  A
C759        C760   1.410       .  A
C759        C766   1.519       .  S
C760        C761   1.405       .  A
C760        H765   1.084       .  S
C761        C762   1.416   1_556  A
C762        C763   1.516       .  S
C763        F767   1.379       .  S
C763        F768   1.384       .  S
C763        F769   1.383       .  S
C766        F770   1.383       .  S
C766        F771   1.383       .  S
C766        F772   1.385       .  S
C773        C774   1.403       .  A
C773        C778   1.406       .  A
C773        H780   1.083       .  S
C774        C775   1.425   1_556  A
C775        C776   1.408       .  A
C775        C782   1.522       .  S
C776        C777   1.401   1_554  A
C776        H781   1.082       .  S
C777        C778   1.417       .  A
C778        C779   1.518       .  S
C779        F783   1.385       .  S
C779        F784   1.380       .  S
C779        F785   1.382       .  S
C782        F786   1.383       .  S
C782        F787   1.384       .  S
C782        F788   1.385       .  S
C789        C790   1.406       .  A
C789        C794   1.409       .  A
C789        H796   1.084       .  S
C790        C791   1.428   1_556  A
C791        C792   1.413       .  A
C791        C798   1.522       .  S
C792        C793   1.402   1_554  A
C792        H797   1.082       .  S
C793        C794   1.422       .  A
C794        C795   1.520       .  S
C795        F799   1.384       .  S
C795        F800   1.383       .  S
C795        F801   1.381       .  S
C798        F802   1.384       .  S
C798        F803   1.383       .  S
C798        F804   1.385       .  S
C805        C806   1.398   1_554  A
C805        C810   1.405       .  A
C805        H812   1.085       .  S
C806        C807   1.418       .  A
C807        C808   1.414       .  A
C807        C814   1.517       .  S
C808        C809   1.405   1_556  A
C808        H813   1.083       .  S
C809        C810   1.426       .  A
C810        C811   1.521       .  S
C811        F815   1.384       .  S
C811        F816   1.381       .  S
C811        F817   1.383       .  S
C814        F818   1.383       .  S
C814        F819   1.383       .  S
C814        F820   1.385       .  S
